atoms 22 bonds 24
dotmatics
mol io
 22 24  0  0  0  0  0  0  0  0999 V2000
    6.6247    2.5051    0.0000 C   0  0  0  0  0  0  0  0  0  0  0  0
    6.2106    1.7892    0.0000 C   0  0  0  0  0  0  0  0  0  0  0  0
    6.6235    1.0727    0.0000 O   0  3  0  0  0  0  0  0  0  0  0  0
    6.2094    0.3568    0.0000 C   0  0  0  0  0  0  0  0  0  0  0  0
    5.3824    0.3576    0.0000 C   0  0  0  0  0  0  0  0  0  0  0  0
    4.9682   -0.3583    0.0000 C   0  0  0  0  0  0  0  0  0  0  0  0
    5.3811   -1.0748    0.0000 O   0  0  0  0  0  0  0  0  0  0  0  0
    4.1412   -0.3576    0.0000 N   0  0  0  0  0  0  0  0  0  0  0  0
    3.7271   -1.0734    0.0000 C   0  0  0  0  0  0  0  0  0  0  0  0
    4.1412   -1.7892    0.0000 N   0  0  0  0  0  0  0  0  0  0  0  0
    3.7271   -2.5051    0.0000 C   0  0  0  0  0  0  0  0  0  0  0  0
    2.8989   -2.5051    0.0000 C   0  0  0  0  0  0  0  0  0  0  0  0
    2.4847   -1.7892    0.0000 C   0  0  0  0  0  0  0  0  0  0  0  0
    1.6565   -1.7892    0.0000 C   0  0  0  0  0  0  0  0  0  0  0  0
    1.2424   -2.5051    0.0000 C   0  0  0  0  0  0  0  0  0  0  0  0
    0.4141   -2.5051    0.0000 C   0  0  0  0  0  0  0  0  0  0  0  0
    0.0000   -1.7892    0.0000 C   0  0  0  0  0  0  0  0  0  0  0  0
    0.4141   -1.0734    0.0000 N   0  0  0  0  0  0  0  0  0  0  0  0
    1.2424   -1.0734    0.0000 C   0  0  0  0  0  0  0  0  0  0  0  0
    2.8989   -1.0734    0.0000 N   0  0  0  0  0  0  0  0  0  0  0  0
    4.9695    1.0741    0.0000 C   0  0  0  0  0  0  0  0  0  0  0  0
    5.3836    1.7900    0.0000 C   0  0  0  0  0  0  0  0  0  0  0  0
  1  2  1  0  0  0
  2 22  1  0  0  0
  2  3  2  0  0  0
  3  4  1  0  0  0
  4  5  1  0  0  0
  5  6  1  0  0  0
  6  7  2  0  0  0
  6  8  1  0  0  0
  8  9  1  0  0  0
  9 20  1  0  0  0
  9 10  2  0  0  0
 10 11  1  0  0  0
 11 12  2  0  0  0
 12 13  1  0  0  0
 13 14  1  0  0  0
 14 19  1  0  0  0
 14 15  2  0  0  0
 15 16  1  0  0  0
 16 17  2  0  0  0
 17 18  1  0  0  0
 18 19  2  0  0  0
 13 20  2  0  0  0
  5 21  1  0  0  0
 21 22  1  0  0  0
M  END
>  <Entry>
0

>  <title>
6621

>  <rigid docking scores>
-18.4134

>  <InChIKey>
GBEXFRJXWQZPCM-UHFFFAOYSA-O

$$$$
atoms 21 bonds 23
dotmatics
mol io
 21 23  0  0  0  0  0  0  0  0999 V2000
    7.8838   -0.8233    0.0000 C   0  0  0  0  0  0  0  0  0  0  0  0
    7.1672   -0.4104    0.0000 C   0  0  0  0  0  0  0  0  0  0  0  0
    6.4514   -0.8245    0.0000 C   0  0  0  0  0  0  0  0  0  0  0  0
    5.7348   -0.4116    0.0000 C   0  0  0  0  0  0  0  0  0  0  0  0
    5.7341    0.4154    0.0000 C   0  0  0  0  0  0  0  0  0  0  0  0
    5.0175    0.8282    0.0000 N   0  0  0  0  0  0  0  0  0  0  0  0
    4.3017    0.4141    0.0000 C   0  0  0  0  0  0  0  0  0  0  0  0
    4.3024   -0.4129    0.0000 O   0  0  0  0  0  0  0  0  0  0  0  0
    3.5851    0.8270    0.0000 N   0  0  0  0  0  0  0  0  0  0  0  0
    2.8693    0.4129    0.0000 C   0  0  0  0  0  0  0  0  0  0  0  0
    2.8693   -0.4154    0.0000 C   0  0  0  0  0  0  0  0  0  0  0  0
    2.1534   -0.8295    0.0000 C   0  0  0  0  0  0  0  0  0  0  0  0
    1.4317   -0.4154    0.0000 C   0  0  0  0  0  0  0  0  0  0  0  0
    1.4317    0.4129    0.0000 C   0  0  0  0  0  0  0  0  0  0  0  0
    2.1534    0.8270    0.0000 C   0  0  0  0  0  0  0  0  0  0  0  0
    0.7158    0.8270    0.0000 O   0  0  0  0  0  0  0  0  0  0  0  0
    0.0000    0.4129    0.0000 C   0  0  0  0  0  0  0  0  0  0  0  0
    0.0000   -0.4154    0.0000 C   0  0  0  0  0  0  0  0  0  0  0  0
    0.7158   -0.8295    0.0000 O   0  0  0  0  0  0  0  0  0  0  0  0
    6.4499    0.8295    0.0000 C   0  0  0  0  0  0  0  0  0  0  0  0
    7.1665    0.4166    0.0000 S   0  0  0  0  0  0  0  0  0  0  0  0
  1  2  1  0  0  0
  2 21  1  0  0  0
  2  3  1  0  0  0
  3  4  1  0  0  0
  4  5  1  0  0  0
  5  6  1  0  0  0
  6  7  1  0  0  0
  7  8  2  0  0  0
  7  9  1  0  0  0
  9 10  1  0  0  0
 10 15  1  0  0  0
 10 11  2  0  0  0
 11 12  1  0  0  0
 12 13  2  0  0  0
 13 19  1  0  0  0
 13 14  1  0  0  0
 14 15  2  0  0  0
 14 16  1  0  0  0
 16 17  1  0  0  0
 17 18  1  0  0  0
 18 19  1  0  0  0
  5 20  1  0  0  0
 20 21  1  0  0  0
M  END
>  <Entry>
1

>  <title>
6768

>  <rigid docking scores>
-15.6878

>  <InChIKey>
ZMIPMOWZHKTGSZ-UHFFFAOYSA-N

$$$$
atoms 24 bonds 27
dotmatics
mol io
 24 27  0  0  0  0  0  0  0  0999 V2000
    3.5851   -2.0636    0.0000 C   0  0  0  0  0  0  0  0  0  0  0  0
    2.8693   -1.6495    0.0000 C   0  0  0  0  0  0  0  0  0  0  0  0
    2.1534   -2.0636    0.0000 C   0  0  0  0  0  0  0  0  0  0  0  0
    1.4317   -1.6495    0.0000 C   0  0  0  0  0  0  0  0  0  0  0  0
    0.7158   -2.0636    0.0000 C   0  0  0  0  0  0  0  0  0  0  0  0
    0.0000   -1.6495    0.0000 C   0  0  0  0  0  0  0  0  0  0  0  0
    0.0000   -0.8212    0.0000 C   0  0  0  0  0  0  0  0  0  0  0  0
    0.7158   -0.4071    0.0000 C   0  0  0  0  0  0  0  0  0  0  0  0
    1.4317   -0.8212    0.0000 C   0  0  0  0  0  0  0  0  0  0  0  0
    2.1534   -0.4071    0.0000 N   0  0  0  0  0  0  0  0  0  0  0  0
    2.1594    0.4199    0.0000 C   0  0  0  0  0  0  0  0  0  0  0  0
    1.4461    0.8385    0.0000 O   0  0  0  0  0  0  0  0  0  0  0  0
    2.8785    0.8282    0.0000 C   0  0  0  0  0  0  0  0  0  0  0  0
    2.8844    1.6552    0.0000 C   0  0  0  0  0  0  0  0  0  0  0  0
    3.6035    2.0636    0.0000 C   0  0  0  0  0  0  0  0  0  0  0  0
    4.3168    1.6450    0.0000 C   0  0  0  0  0  0  0  0  0  0  0  0
    4.3109    0.8180    0.0000 C   0  0  0  0  0  0  0  0  0  0  0  0
    3.5917    0.4096    0.0000 C   0  0  0  0  0  0  0  0  0  0  0  0
    5.0241    0.3994    0.0000 O   0  0  0  0  0  0  0  0  0  0  0  0
    5.7432    0.8078    0.0000 C   0  0  0  0  0  0  0  0  0  0  0  0
    5.7491    1.6348    0.0000 C   0  0  0  0  0  0  0  0  0  0  0  0
    6.4683    2.0431    0.0000 O   0  0  0  0  0  0  0  0  0  0  0  0
    5.0359    2.0534    0.0000 N   0  0  0  0  0  0  0  0  0  0  0  0
    2.8693   -0.8212    0.0000 C   0  0  0  0  0  0  0  0  0  0  0  0
  1  2  1  0  0  0
  2 24  1  0  0  0
  2  3  1  0  0  0
  3  4  1  0  0  0
  4  9  1  0  0  0
  4  5  2  0  0  0
  5  6  1  0  0  0
  6  7  2  0  0  0
  7  8  1  0  0  0
  8  9  2  0  0  0
  9 10  1  0  0  0
 10 11  1  0  0  0
 11 12  2  0  0  0
 11 13  1  0  0  0
 13 18  1  0  0  0
 13 14  2  0  0  0
 14 15  1  0  0  0
 15 16  2  0  0  0
 16 23  1  0  0  0
 16 17  1  0  0  0
 17 18  2  0  0  0
 17 19  1  0  0  0
 19 20  1  0  0  0
 20 21  1  0  0  0
 21 22  2  0  0  0
 21 23  1  0  0  0
 10 24  1  0  0  0
M  END
>  <Entry>
2

>  <title>
7116

>  <rigid docking scores>
-17.1854

>  <InChIKey>
AJOMSBLECBRSQB-UHFFFAOYSA-N

$$$$
atoms 23 bonds 25
dotmatics
mol io
 23 25  0  0  0  0  0  0  0  0999 V2000
    0.0032   -3.0465    0.0000 C   0  0  0  0  0  0  0  0  0  0  0  0
    0.7194   -2.6330    0.0000 C   0  0  0  0  0  0  0  0  0  0  0  0
    0.7194   -1.8060    0.0000 C   0  0  0  0  0  0  0  0  0  0  0  0
    1.4356   -1.3925    0.0000 N   0  0  0  0  0  0  0  0  0  0  0  0
    1.4356   -0.5655    0.0000 C   0  0  0  0  0  0  0  0  0  0  0  0
    0.7194   -0.1520    0.0000 O   0  0  0  0  0  0  0  0  0  0  0  0
    2.1518   -0.1520    0.0000 C   0  0  0  0  0  0  0  0  0  0  0  0
    2.1518    0.6750    0.0000 N   0  0  0  0  0  0  0  0  0  0  0  0
    1.4365    1.0888    0.0000 C   0  0  0  0  0  0  0  0  0  0  0  0
    0.7153    0.6750    0.0000 C   0  0  0  0  0  0  0  0  0  0  0  0
    0.0000    1.0888    0.0000 C   0  0  0  0  0  0  0  0  0  0  0  0
    0.0000    1.9165    0.0000 C   0  0  0  0  0  0  0  0  0  0  0  0
    0.7153    2.3303    0.0000 C   0  0  0  0  0  0  0  0  0  0  0  0
    1.4365    1.9165    0.0000 C   0  0  0  0  0  0  0  0  0  0  0  0
    2.1518    2.3303    0.0000 S   0  0  0  0  0  0  0  0  0  0  0  0
    1.7383    3.0465    0.0000 O   0  0  0  0  0  0  0  0  0  0  0  0
    2.5653    3.0465    0.0000 O   0  0  0  0  0  0  0  0  0  0  0  0
    2.8671    1.9165    0.0000 C   0  0  0  0  0  0  0  0  0  0  0  0
    3.5824    2.3303    0.0000 C   0  0  0  0  0  0  0  0  0  0  0  0
    4.3036    1.9165    0.0000 C   0  0  0  0  0  0  0  0  0  0  0  0
    4.3036    1.0888    0.0000 C   0  0  0  0  0  0  0  0  0  0  0  0
    3.5824    0.6750    0.0000 C   0  0  0  0  0  0  0  0  0  0  0  0
    2.8671    1.0888    0.0000 C   0  0  0  0  0  0  0  0  0  0  0  0
  1  2  1  0  0  0
  2  3  1  0  0  0
  3  4  1  0  0  0
  4  5  1  0  0  0
  5  6  2  0  0  0
  5  7  1  0  0  0
  7  8  1  0  0  0
  8 23  1  0  0  0
  8  9  1  0  0  0
  9 14  1  0  0  0
  9 10  2  0  0  0
 10 11  1  0  0  0
 11 12  2  0  0  0
 12 13  1  0  0  0
 13 14  2  0  0  0
 14 15  1  0  0  0
 15 16  2  0  0  0
 15 17  2  0  0  0
 15 18  1  0  0  0
 18 23  1  0  0  0
 18 19  2  0  0  0
 19 20  1  0  0  0
 20 21  2  0  0  0
 21 22  1  0  0  0
 22 23  2  0  0  0
M  END
>  <Entry>
3

>  <title>
8345

>  <rigid docking scores>
-23.0261

>  <InChIKey>
FELGZJPDBOKECS-UHFFFAOYSA-N

$$$$
atoms 23 bonds 25
dotmatics
mol io
 23 25  0  0  0  0  0  0  0  0999 V2000
    4.7771   -2.2046    0.0000 C   0  0  0  0  0  0  0  0  0  0  0  0
    5.1906   -1.4884    0.0000 C   0  0  0  0  0  0  0  0  0  0  0  0
    4.7771   -0.7722    0.0000 N   0  0  0  0  0  0  0  0  0  0  0  0
    3.9501   -0.7722    0.0000 C   0  0  0  0  0  0  0  0  0  0  0  0
    3.5366   -0.0560    0.0000 C   0  0  0  0  0  0  0  0  0  0  0  0
    3.9501    0.6602    0.0000 N   0  0  0  0  0  0  0  0  0  0  0  0
    3.5366    1.3764    0.0000 C   0  0  0  0  0  0  0  0  0  0  0  0
    3.9501    2.0926    0.0000 O   0  0  0  0  0  0  0  0  0  0  0  0
    2.7096    1.3764    0.0000 C   0  0  0  0  0  0  0  0  0  0  0  0
    2.2185    2.0449    0.0000 O   0  0  0  0  0  0  0  0  0  0  0  0
    1.4317    1.7905    0.0000 C   0  0  0  0  0  0  0  0  0  0  0  0
    0.7158    2.2046    0.0000 C   0  0  0  0  0  0  0  0  0  0  0  0
    0.0000    1.7905    0.0000 C   0  0  0  0  0  0  0  0  0  0  0  0
    0.0000    0.9623    0.0000 C   0  0  0  0  0  0  0  0  0  0  0  0
    0.7158    0.5481    0.0000 C   0  0  0  0  0  0  0  0  0  0  0  0
    1.4317    0.9623    0.0000 C   0  0  0  0  0  0  0  0  0  0  0  0
    2.2185    0.7079    0.0000 C   0  0  0  0  0  0  0  0  0  0  0  0
    2.4709   -0.0797    0.0000 N   0  0  0  0  0  0  0  0  0  0  0  0
    1.9151   -0.6920    0.0000 C   0  0  0  0  0  0  0  0  0  0  0  0
    2.1675   -1.4796    0.0000 C   0  0  0  0  0  0  0  0  0  0  0  0
    1.1069   -0.5169    0.0000 O   0  0  0  0  0  0  0  0  0  0  0  0
    4.7771    0.6602    0.0000 C   0  0  0  0  0  0  0  0  0  0  0  0
    5.1906   -0.0560    0.0000 C   0  0  0  0  0  0  0  0  0  0  0  0
  1  2  1  0  0  0
  2  3  1  0  0  0
  3 23  1  0  0  0
  3  4  1  0  0  0
  4  5  1  0  0  0
  5  6  1  0  0  0
  6  7  1  0  0  0
  7  8  2  0  0  0
  7  9  1  0  0  0
  9 17  2  0  0  0
  9 10  1  0  0  0
 10 11  1  0  0  0
 11 16  1  0  0  0
 11 12  2  0  0  0
 12 13  1  0  0  0
 13 14  2  0  0  0
 14 15  1  0  0  0
 15 16  2  0  0  0
 16 17  1  0  0  0
 17 18  1  0  0  0
 18 19  1  0  0  0
 19 20  1  0  0  0
 19 21  2  0  0  0
  6 22  1  0  0  0
 22 23  1  0  0  0
M  END
>  <Entry>
4

>  <title>
8678

>  <rigid docking scores>
-19.3029

>  <InChIKey>
JCAMNUFDZLUYEB-UHFFFAOYSA-N

>  <ZINC>
ZINC000009265444

>  <eMolecules>
28316458

>  <Pubchem>
20926115

>  <Mcule>
MCULE-9218509013

$$$$
atoms 20 bonds 22
dotmatics
mol io
 20 22  0  0  0  0  0  0  0  0999 V2000
    5.4005   -1.9738    0.0000 C   0  0  0  0  0  0  0  0  0  0  0  0
    4.5922   -1.7987    0.0000 N   0  0  0  0  0  0  0  0  0  0  0  0
    4.0364   -2.4110    0.0000 C   0  0  0  0  0  0  0  0  0  0  0  0
    4.3398   -1.0111    0.0000 C   0  0  0  0  0  0  0  0  0  0  0  0
    4.8956   -0.3988    0.0000 O   0  0  0  0  0  0  0  0  0  0  0  0
    3.5316   -0.8360    0.0000 N   0  0  0  0  0  0  0  0  0  0  0  0
    2.9758   -1.4483    0.0000 C   0  0  0  0  0  0  0  0  0  0  0  0
    2.1675   -1.2732    0.0000 C   0  0  0  0  0  0  0  0  0  0  0  0
    1.9151   -0.4856    0.0000 C   0  0  0  0  0  0  0  0  0  0  0  0
    2.4709    0.1267    0.0000 C   0  0  0  0  0  0  0  0  0  0  0  0
    2.2185    0.9143    0.0000 C   0  0  0  0  0  0  0  0  0  0  0  0
    2.7096    1.5828    0.0000 C   0  0  0  0  0  0  0  0  0  0  0  0
    2.2185    2.2513    0.0000 N   0  0  0  0  0  0  0  0  0  0  0  0
    1.4317    1.9969    0.0000 C   0  0  0  0  0  0  0  0  0  0  0  0
    0.7158    2.4110    0.0000 N   0  0  0  0  0  0  0  0  0  0  0  0
    0.0000    1.9969    0.0000 C   0  0  0  0  0  0  0  0  0  0  0  0
    0.0000    1.1687    0.0000 C   0  0  0  0  0  0  0  0  0  0  0  0
    0.7158    0.7545    0.0000 C   0  0  0  0  0  0  0  0  0  0  0  0
    1.4317    1.1687    0.0000 C   0  0  0  0  0  0  0  0  0  0  0  0
    3.2792   -0.0484    0.0000 C   0  0  0  0  0  0  0  0  0  0  0  0
  1  2  1  0  0  0
  2  3  1  0  0  0
  2  4  1  0  0  0
  4  5  2  0  0  0
  4  6  1  0  0  0
  6 20  1  0  0  0
  6  7  1  0  0  0
  7  8  1  0  0  0
  8  9  1  0  0  0
  9 10  1  0  0  0
 10 11  1  0  0  0
 11 19  1  0  0  0
 11 12  2  0  0  0
 12 13  1  0  0  0
 13 14  1  0  0  0
 14 19  1  0  0  0
 14 15  2  0  0  0
 15 16  1  0  0  0
 16 17  2  0  0  0
 17 18  1  0  0  0
 18 19  2  0  0  0
 10 20  1  0  0  0
M  END
>  <Entry>
5

>  <title>
9951

>  <rigid docking scores>
-17.5555

>  <InChIKey>
OZLLDTPRWJFLMN-UHFFFAOYSA-N

$$$$
atoms 24 bonds 27
dotmatics
mol io
 24 27  0  0  0  0  0  0  0  0999 V2000
    0.0000    1.4923    0.0000 C   0  0  0  0  0  0  0  0  0  0  0  0
    0.7166    1.0794    0.0000 N   0  0  0  0  0  0  0  0  0  0  0  0
    1.4324    1.4936    0.0000 C   0  0  0  0  0  0  0  0  0  0  0  0
    2.1490    1.0807    0.0000 C   0  0  0  0  0  0  0  0  0  0  0  0
    2.1497    0.2537    0.0000 C   0  0  0  0  0  0  0  0  0  0  0  0
    2.8663   -0.1592    0.0000 C   0  0  0  0  0  0  0  0  0  0  0  0
    2.8670   -0.9862    0.0000 O   0  0  0  0  0  0  0  0  0  0  0  0
    3.5821    0.2549    0.0000 N   0  0  0  0  0  0  0  0  0  0  0  0
    3.5821    1.0832    0.0000 C   0  0  0  0  0  0  0  0  0  0  0  0
    4.2979    1.4973    0.0000 C   0  0  0  0  0  0  0  0  0  0  0  0
    5.0138    1.0832    0.0000 C   0  0  0  0  0  0  0  0  0  0  0  0
    5.0138    0.2549    0.0000 C   0  0  0  0  0  0  0  0  0  0  0  0
    5.8006    0.0005    0.0000 C   0  0  0  0  0  0  0  0  0  0  0  0
    6.0530   -0.7870    0.0000 C   0  0  0  0  0  0  0  0  0  0  0  0
    6.8385   -1.0457    0.0000 N   0  0  0  0  0  0  0  0  0  0  0  0
    6.8352   -1.8727    0.0000 C   0  0  0  0  0  0  0  0  0  0  0  0
    6.0477   -2.1251    0.0000 C   0  0  0  0  0  0  0  0  0  0  0  0
    5.5643   -1.4541    0.0000 N   0  0  0  0  0  0  0  0  0  0  0  0
    6.2916    0.6691    0.0000 N   0  0  0  0  0  0  0  0  0  0  0  0
    5.8006    1.3376    0.0000 N   0  0  0  0  0  0  0  0  0  0  0  0
    6.0530    2.1251    0.0000 C   0  0  0  0  0  0  0  0  0  0  0  0
    4.2979   -0.1592    0.0000 C   0  0  0  0  0  0  0  0  0  0  0  0
    1.4338   -0.1604    0.0000 C   0  0  0  0  0  0  0  0  0  0  0  0
    0.7173    0.2524    0.0000 C   0  0  0  0  0  0  0  0  0  0  0  0
  1  2  1  0  0  0
  2 24  1  0  0  0
  2  3  1  0  0  0
  3  4  1  0  0  0
  4  5  1  0  0  0
  5  6  1  0  0  0
  6  7  2  0  0  0
  6  8  1  0  0  0
  8 22  1  0  0  0
  8  9  1  0  0  0
  9 10  1  0  0  0
 10 11  1  0  0  0
 11 20  1  0  0  0
 11 12  2  0  0  0
 12 13  1  0  0  0
 13 14  1  0  0  0
 14 18  1  0  0  0
 14 15  2  0  0  0
 15 16  1  0  0  0
 16 17  2  0  0  0
 17 18  1  0  0  0
 13 19  2  0  0  0
 19 20  1  0  0  0
 20 21  1  0  0  0
 12 22  1  0  0  0
  5 23  1  0  0  0
 23 24  1  0  0  0
M  END
>  <Entry>
6

>  <title>
10539

>  <rigid docking scores>
-16.5736

>  <InChIKey>
BVMFHNQJZAIRRR-UHFFFAOYSA-N

$$$$
atoms 20 bonds 22
dotmatics
mol io
 20 22  0  0  0  0  0  0  0  0999 V2000
    2.9021    3.0999    0.0000 C   0  0  0  0  0  0  0  0  0  0  0  0
    2.8962    2.2729    0.0000 N   0  0  0  0  0  0  0  0  0  0  0  0
    3.6094    1.8543    0.0000 C   0  0  0  0  0  0  0  0  0  0  0  0
    3.6035    1.0273    0.0000 C   0  0  0  0  0  0  0  0  0  0  0  0
    2.8844    0.6189    0.0000 C   0  0  0  0  0  0  0  0  0  0  0  0
    2.8785   -0.2080    0.0000 N   0  0  0  0  0  0  0  0  0  0  0  0
    2.1594   -0.6164    0.0000 C   0  0  0  0  0  0  0  0  0  0  0  0
    1.4461   -0.1978    0.0000 O   0  0  0  0  0  0  0  0  0  0  0  0
    2.1534   -1.4434    0.0000 C   0  0  0  0  0  0  0  0  0  0  0  0
    2.8693   -1.8575    0.0000 C   0  0  0  0  0  0  0  0  0  0  0  0
    2.8693   -2.6858    0.0000 C   0  0  0  0  0  0  0  0  0  0  0  0
    2.1534   -3.0999    0.0000 C   0  0  0  0  0  0  0  0  0  0  0  0
    1.4317   -2.6858    0.0000 C   0  0  0  0  0  0  0  0  0  0  0  0
    0.7158   -3.0999    0.0000 C   0  0  0  0  0  0  0  0  0  0  0  0
    0.0000   -2.6858    0.0000 C   0  0  0  0  0  0  0  0  0  0  0  0
    0.0000   -1.8575    0.0000 C   0  0  0  0  0  0  0  0  0  0  0  0
    0.7158   -1.4434    0.0000 C   0  0  0  0  0  0  0  0  0  0  0  0
    1.4317   -1.8575    0.0000 C   0  0  0  0  0  0  0  0  0  0  0  0
    2.1712    1.0376    0.0000 C   0  0  0  0  0  0  0  0  0  0  0  0
    2.1771    1.8645    0.0000 C   0  0  0  0  0  0  0  0  0  0  0  0
  1  2  1  0  0  0
  2 20  1  0  0  0
  2  3  1  0  0  0
  3  4  1  0  0  0
  4  5  1  0  0  0
  5  6  1  0  0  0
  6  7  1  0  0  0
  7  8  2  0  0  0
  7  9  1  0  0  0
  9 18  1  0  0  0
  9 10  2  0  0  0
 10 11  1  0  0  0
 11 12  2  0  0  0
 12 13  1  0  0  0
 13 18  1  0  0  0
 13 14  2  0  0  0
 14 15  1  0  0  0
 15 16  2  0  0  0
 16 17  1  0  0  0
 17 18  2  0  0  0
  5 19  1  0  0  0
 19 20  1  0  0  0
M  END
>  <Entry>
7

>  <title>
10976

>  <rigid docking scores>
-18.3889

>  <InChIKey>
XLQNBOOXYQTRSD-UHFFFAOYSA-N

>  <ZINC>
ZINC000016580330

>  <eMolecules>
16622883

>  <Pubchem>
25236043

>  <Mcule>
MCULE-9805991992

>  <MolPort>
MolPort-008-305-958

$$$$
atoms 25 bonds 28
dotmatics
mol io
 25 28  0  0  0  0  0  0  0  0999 V2000
    8.3953    2.3256    0.0000 C   0  0  0  0  0  0  0  0  0  0  0  0
    8.0596    1.5698    0.0000 N   0  0  0  0  0  0  0  0  0  0  0  0
    8.4737    0.8539    0.0000 C   0  0  0  0  0  0  0  0  0  0  0  0
    7.9209    0.2389    0.0000 C   0  0  0  0  0  0  0  0  0  0  0  0
    7.1651    0.5746    0.0000 N   0  0  0  0  0  0  0  0  0  0  0  0
    6.4492    0.1604    0.0000 C   0  0  0  0  0  0  0  0  0  0  0  0
    6.4499   -0.6666    0.0000 O   0  0  0  0  0  0  0  0  0  0  0  0
    5.7327    0.5733    0.0000 C   0  0  0  0  0  0  0  0  0  0  0  0
    5.0168    0.1592    0.0000 C   0  0  0  0  0  0  0  0  0  0  0  0
    5.0175   -0.6678    0.0000 C   0  0  0  0  0  0  0  0  0  0  0  0
    4.3017   -1.0819    0.0000 C   0  0  0  0  0  0  0  0  0  0  0  0
    3.5851   -0.6691    0.0000 N   0  0  0  0  0  0  0  0  0  0  0  0
    2.8693   -1.0832    0.0000 C   0  0  0  0  0  0  0  0  0  0  0  0
    2.8693   -1.9114    0.0000 N   0  0  0  0  0  0  0  0  0  0  0  0
    2.1534   -2.3256    0.0000 C   0  0  0  0  0  0  0  0  0  0  0  0
    1.4317   -1.9114    0.0000 C   0  0  0  0  0  0  0  0  0  0  0  0
    0.7158   -2.3256    0.0000 C   0  0  0  0  0  0  0  0  0  0  0  0
    0.0000   -1.9114    0.0000 C   0  0  0  0  0  0  0  0  0  0  0  0
    0.0000   -1.0832    0.0000 C   0  0  0  0  0  0  0  0  0  0  0  0
    0.7158   -0.6691    0.0000 C   0  0  0  0  0  0  0  0  0  0  0  0
    1.4317   -1.0832    0.0000 C   0  0  0  0  0  0  0  0  0  0  0  0
    2.1534   -0.6691    0.0000 N   0  0  0  0  0  0  0  0  0  0  0  0
    3.5844    0.1579    0.0000 C   0  0  0  0  0  0  0  0  0  0  0  0
    4.3003    0.5721    0.0000 C   0  0  0  0  0  0  0  0  0  0  0  0
    7.2508    1.3971    0.0000 C   0  0  0  0  0  0  0  0  0  0  0  0
  1  2  1  0  0  0
  2 25  1  0  0  0
  2  3  1  0  0  0
  3  4  1  0  0  0
  4  5  1  0  0  0
  5  6  1  0  0  0
  6  7  2  0  0  0
  6  8  1  0  0  0
  8  9  1  0  0  0
  9 24  1  0  0  0
  9 10  1  0  0  0
 10 11  1  0  0  0
 11 12  1  0  0  0
 12 13  1  0  0  0
 13 22  1  0  0  0
 13 14  2  0  0  0
 14 15  1  0  0  0
 15 16  2  0  0  0
 16 21  1  0  0  0
 16 17  1  0  0  0
 17 18  2  0  0  0
 18 19  1  0  0  0
 19 20  2  0  0  0
 20 21  1  0  0  0
 21 22  2  0  0  0
 12 23  1  0  0  0
 23 24  1  0  0  0
  5 25  1  0  0  0
M  END
>  <Entry>
8

>  <title>
11187

>  <rigid docking scores>
-18.2684

>  <InChIKey>
FKWOILCDZVIWHE-UHFFFAOYSA-N

$$$$
atoms 23 bonds 25
dotmatics
mol io
 23 25  0  0  0  0  0  0  0  0999 V2000
    1.4353    3.7227    0.0000 C   0  0  0  0  0  0  0  0  0  0  0  0
    1.4346    2.8957    0.0000 O   0  0  0  0  0  0  0  0  0  0  0  0
    0.7180    2.4829    0.0000 C   0  0  0  0  0  0  0  0  0  0  0  0
    0.0022    2.8970    0.0000 O   0  0  0  0  0  0  0  0  0  0  0  0
    0.7173    1.6559    0.0000 C   0  0  0  0  0  0  0  0  0  0  0  0
    1.4331    1.2417    0.0000 C   0  0  0  0  0  0  0  0  0  0  0  0
    1.4324    0.4147    0.0000 C   0  0  0  0  0  0  0  0  0  0  0  0
    0.7158    0.0019    0.0000 C   0  0  0  0  0  0  0  0  0  0  0  0
    0.7151   -0.8251    0.0000 N   0  0  0  0  0  0  0  0  0  0  0  0
    1.4310   -1.2393    0.0000 C   0  0  0  0  0  0  0  0  0  0  0  0
    2.1475   -0.8264    0.0000 O   0  0  0  0  0  0  0  0  0  0  0  0
    1.4302   -2.0663    0.0000 N   0  0  0  0  0  0  0  0  0  0  0  0
    2.1461   -2.4804    0.0000 C   0  0  0  0  0  0  0  0  0  0  0  0
    2.1461   -3.3086    0.0000 C   0  0  0  0  0  0  0  0  0  0  0  0
    2.8619   -3.7227    0.0000 C   0  0  0  0  0  0  0  0  0  0  0  0
    3.5778   -3.3086    0.0000 C   0  0  0  0  0  0  0  0  0  0  0  0
    3.5778   -2.4804    0.0000 C   0  0  0  0  0  0  0  0  0  0  0  0
    2.8619   -2.0663    0.0000 C   0  0  0  0  0  0  0  0  0  0  0  0
    4.3646   -2.2260    0.0000 O   0  0  0  0  0  0  0  0  0  0  0  0
    4.8556   -2.8945    0.0000 C   0  0  0  0  0  0  0  0  0  0  0  0
    4.3646   -3.5630    0.0000 O   0  0  0  0  0  0  0  0  0  0  0  0
    0.0000    0.4160    0.0000 C   0  0  0  0  0  0  0  0  0  0  0  0
    0.0007    1.2430    0.0000 C   0  0  0  0  0  0  0  0  0  0  0  0
  1  2  1  0  0  0
  2  3  1  0  0  0
  3  4  2  0  0  0
  3  5  1  0  0  0
  5 23  1  0  0  0
  5  6  2  0  0  0
  6  7  1  0  0  0
  7  8  2  0  0  0
  8  9  1  0  0  0
  9 10  1  0  0  0
 10 11  2  0  0  0
 10 12  1  0  0  0
 12 13  1  0  0  0
 13 18  1  0  0  0
 13 14  2  0  0  0
 14 15  1  0  0  0
 15 16  2  0  0  0
 16 21  1  0  0  0
 16 17  1  0  0  0
 17 18  2  0  0  0
 17 19  1  0  0  0
 19 20  1  0  0  0
 20 21  1  0  0  0
  8 22  1  0  0  0
 22 23  2  0  0  0
M  END
>  <Entry>
9

>  <title>
12494

>  <rigid docking scores>
-16.3218

>  <InChIKey>
NKQJJKADPMKXFO-UHFFFAOYSA-N

>  <ChEMBL>
CHEMBL1599927

>  <ZINC>
ZINC000006741847

>  <eMolecules>
2295165

>  <Pubchem>
6470376

>  <Mcule>
MCULE-8488918426

>  <MolPort>
MolPort-002-109-526

$$$$
atoms 23 bonds 26
dotmatics
mol io
 23 26  0  0  0  0  0  0  0  0999 V2000
    6.3531    3.1148    0.0000 C   0  0  0  0  0  0  0  0  0  0  0  0
    6.3531    2.2878    0.0000 C   0  0  0  0  0  0  0  0  0  0  0  0
    7.0222    1.8017    0.0000 C   0  0  0  0  0  0  0  0  0  0  0  0
    6.7666    1.0152    0.0000 N   0  0  0  0  0  0  0  0  0  0  0  0
    5.9396    1.0152    0.0000 C   0  0  0  0  0  0  0  0  0  0  0  0
    5.4535    0.3462    0.0000 C   0  0  0  0  0  0  0  0  0  0  0  0
    5.5829   -0.4707    0.0000 C   0  0  0  0  0  0  0  0  0  0  0  0
    4.7660   -0.6000    0.0000 N   0  0  0  0  0  0  0  0  0  0  0  0
    4.2800   -1.2691    0.0000 C   0  0  0  0  0  0  0  0  0  0  0  0
    3.4575   -1.1826    0.0000 C   0  0  0  0  0  0  0  0  0  0  0  0
    2.9041   -1.7972    0.0000 N   0  0  0  0  0  0  0  0  0  0  0  0
    2.1486   -1.4608    0.0000 C   0  0  0  0  0  0  0  0  0  0  0  0
    1.4324   -1.8743    0.0000 C   0  0  0  0  0  0  0  0  0  0  0  0
    1.4324   -2.7013    0.0000 C   0  0  0  0  0  0  0  0  0  0  0  0
    0.7162   -3.1148    0.0000 C   0  0  0  0  0  0  0  0  0  0  0  0
    0.0000   -2.7013    0.0000 C   0  0  0  0  0  0  0  0  0  0  0  0
    0.0000   -1.8743    0.0000 N   0  0  0  0  0  0  0  0  0  0  0  0
    0.7162   -1.4608    0.0000 C   0  0  0  0  0  0  0  0  0  0  0  0
    2.2351   -0.6384    0.0000 O   0  0  0  0  0  0  0  0  0  0  0  0
    3.0440   -0.4664    0.0000 C   0  0  0  0  0  0  0  0  0  0  0  0
    3.3804    0.2891    0.0000 C   0  0  0  0  0  0  0  0  0  0  0  0
    4.6367    0.2168    0.0000 C   0  0  0  0  0  0  0  0  0  0  0  0
    5.6840    1.8017    0.0000 N   0  0  0  0  0  0  0  0  0  0  0  0
  1  2  1  0  0  0
  2 23  1  0  0  0
  2  3  2  0  0  0
  3  4  1  0  0  0
  4  5  1  0  0  0
  5  6  1  0  0  0
  6 22  1  0  0  0
  6  7  1  0  0  0
  7  8  1  0  0  0
  8  9  1  0  0  0
  9 10  1  0  0  0
 10 20  2  0  0  0
 10 11  1  0  0  0
 11 12  2  0  0  0
 12 13  1  0  0  0
 13 18  1  0  0  0
 13 14  2  0  0  0
 14 15  1  0  0  0
 15 16  2  0  0  0
 16 17  1  0  0  0
 17 18  2  0  0  0
 12 19  1  0  0  0
 19 20  1  0  0  0
 20 21  1  0  0  0
  8 22  1  0  0  0
  5 23  2  0  0  0
M  END
>  <Entry>
10

>  <title>
16183

>  <rigid docking scores>
-17.4162

>  <InChIKey>
YWEQAWSTSHKFJO-UHFFFAOYSA-N

$$$$
atoms 19 bonds 21
dotmatics
mol io
 19 21  0  0  0  0  0  0  0  0999 V2000
   -2.7122    0.6691    0.0000 C   0  0  0  0  0  0  0  0  0  0  0  0
   -1.8852    0.6691    0.0000 C   0  0  0  0  0  0  0  0  0  0  0  0
   -1.3991    1.3381    0.0000 C   0  0  0  0  0  0  0  0  0  0  0  0
   -0.6126    1.0826    0.0000 C   0  0  0  0  0  0  0  0  0  0  0  0
    0.0564    1.5687    0.0000 C   0  0  0  0  0  0  0  0  0  0  0  0
   -0.0300    2.3911    0.0000 O   0  0  0  0  0  0  0  0  0  0  0  0
    0.8120    1.2323    0.0000 N   0  0  0  0  0  0  0  0  0  0  0  0
    0.9839    0.4234    0.0000 C   0  0  0  0  0  0  0  0  0  0  0  0
    1.8064    0.3369    0.0000 C   0  0  0  0  0  0  0  0  0  0  0  0
    2.1427    1.0924    0.0000 C   0  0  0  0  0  0  0  0  0  0  0  0
    1.5282    1.6458    0.0000 C   0  0  0  0  0  0  0  0  0  0  0  0
    1.6146    2.4683    0.0000 C   0  0  0  0  0  0  0  0  0  0  0  0
    1.0000    3.0216    0.0000 C   0  0  0  0  0  0  0  0  0  0  0  0
    1.3364    3.7771    0.0000 N   0  0  0  0  0  0  0  0  0  0  0  0
    2.1589    3.6907    0.0000 N   0  0  0  0  0  0  0  0  0  0  0  0
    2.7122    4.3053    0.0000 S   0  3  0  0  0  0  0  0  0  0  0  0
    2.3308    2.8818    0.0000 C   0  0  0  0  0  0  0  0  0  0  0  0
   -0.6126    0.2556    0.0000 C   0  0  0  0  0  0  0  0  0  0  0  0
   -1.3991    0.0000    0.0000 N   0  0  0  0  0  0  0  0  0  0  0  0
  1  2  1  0  0  0
  2 19  1  0  0  0
  2  3  2  0  0  0
  3  4  1  0  0  0
  4  5  1  0  0  0
  5  6  2  0  0  0
  5  7  1  0  0  0
  7 11  1  0  0  0
  7  8  1  0  0  0
  8  9  1  0  0  0
  9 10  1  0  0  0
 10 11  1  0  0  0
 11 12  1  0  0  0
 12 17  2  0  0  0
 12 13  1  0  0  0
 13 14  2  0  0  0
 14 15  1  0  0  0
 15 16  1  0  0  0
 15 17  1  0  0  0
  4 18  2  0  0  0
 18 19  1  0  0  0
M  END
>  <Entry>
11

>  <title>
16413

>  <rigid docking scores>
-16.1828

>  <InChIKey>
LBBIJRSCBVXNPR-UHFFFAOYSA-O

$$$$
atoms 23 bonds 25
dotmatics
mol io
 23 25  0  0  0  0  0  0  0  0999 V2000
    3.0306    2.3879    0.0000 C   0  0  0  0  0  0  0  0  0  0  0  0
    3.0306    1.5609    0.0000 C   0  0  0  0  0  0  0  0  0  0  0  0
    3.6997    1.0748    0.0000 C   0  0  0  0  0  0  0  0  0  0  0  0
    3.4441    0.2883    0.0000 C   0  0  0  0  0  0  0  0  0  0  0  0
    3.9302   -0.3808    0.0000 C   0  0  0  0  0  0  0  0  0  0  0  0
    3.5939   -1.1363    0.0000 O   0  0  0  0  0  0  0  0  0  0  0  0
    4.7527   -0.2943    0.0000 N   0  0  0  0  0  0  0  0  0  0  0  0
    5.0891    0.4612    0.0000 C   0  0  0  0  0  0  0  0  0  0  0  0
    5.9115    0.5476    0.0000 C   0  0  0  0  0  0  0  0  0  0  0  0
    6.3976   -0.1214    0.0000 N   0  0  0  0  0  0  0  0  0  0  0  0
    7.2201   -0.0350    0.0000 C   0  0  0  0  0  0  0  0  0  0  0  0
    6.0613   -0.8769    0.0000 C   0  0  0  0  0  0  0  0  0  0  0  0
    5.2388   -0.9634    0.0000 C   0  0  0  0  0  0  0  0  0  0  0  0
    2.6171    0.2883    0.0000 N   0  0  0  0  0  0  0  0  0  0  0  0
    2.1310   -0.3808    0.0000 C   0  0  0  0  0  0  0  0  0  0  0  0
    2.4674   -1.1363    0.0000 C   0  0  0  0  0  0  0  0  0  0  0  0
    1.9813   -1.8053    0.0000 C   0  0  0  0  0  0  0  0  0  0  0  0
    1.1588   -1.7189    0.0000 C   0  0  0  0  0  0  0  0  0  0  0  0
    0.6727   -2.3879    0.0000 Cl  0  0  0  0  0  0  0  0  0  0  0  0
    0.8225   -0.9634    0.0000 C   0  0  0  0  0  0  0  0  0  0  0  0
    0.0000   -0.8769    0.0000 C   0  0  0  0  0  0  0  0  0  0  0  0
    1.3086   -0.2943    0.0000 C   0  0  0  0  0  0  0  0  0  0  0  0
    2.3616    1.0748    0.0000 N   0  0  0  0  0  0  0  0  0  0  0  0
  1  2  1  0  0  0
  2 23  2  0  0  0
  2  3  1  0  0  0
  3  4  2  0  0  0
  4  5  1  0  0  0
  5  6  2  0  0  0
  5  7  1  0  0  0
  7 13  1  0  0  0
  7  8  1  0  0  0
  8  9  1  0  0  0
  9 10  1  0  0  0
 10 11  1  0  0  0
 10 12  1  0  0  0
 12 13  1  0  0  0
  4 14  1  0  0  0
 14 15  1  0  0  0
 15 22  1  0  0  0
 15 16  2  0  0  0
 16 17  1  0  0  0
 17 18  2  0  0  0
 18 19  1  0  0  0
 18 20  1  0  0  0
 20 21  1  0  0  0
 20 22  2  0  0  0
 14 23  1  0  0  0
M  END
>  <Entry>
12

>  <title>
16435

>  <rigid docking scores>
-16.8115

>  <InChIKey>
SLWDCLMTMDULJZ-UHFFFAOYSA-N

$$$$
atoms 24 bonds 27
dotmatics
mol io
 24 27  0  0  0  0  0  0  0  0999 V2000
    1.4331    2.0687    0.0000 C   0  0  0  0  0  0  0  0  0  0  0  0
    2.1490    1.6546    0.0000 C   0  0  0  0  0  0  0  0  0  0  0  0
    2.1490    0.8264    0.0000 C   0  0  0  0  0  0  0  0  0  0  0  0
    2.8648    0.4123    0.0000 C   0  0  0  0  0  0  0  0  0  0  0  0
    2.8648   -0.4147    0.0000 N   0  0  0  0  0  0  0  0  0  0  0  0
    2.1486   -0.8282    0.0000 C   0  0  0  0  0  0  0  0  0  0  0  0
    2.1486   -1.6552    0.0000 C   0  0  0  0  0  0  0  0  0  0  0  0
    1.4324   -2.0687    0.0000 C   0  0  0  0  0  0  0  0  0  0  0  0
    0.7162   -1.6552    0.0000 N   0  0  0  0  0  0  0  0  0  0  0  0
    0.0000   -2.0687    0.0000 C   0  0  0  0  0  0  0  0  0  0  0  0
    0.7162   -0.8282    0.0000 C   0  0  0  0  0  0  0  0  0  0  0  0
    1.4324   -0.4147    0.0000 C   0  0  0  0  0  0  0  0  0  0  0  0
    3.5807    0.8264    0.0000 N   0  0  0  0  0  0  0  0  0  0  0  0
    4.3675    0.5720    0.0000 N   0  0  0  0  0  0  0  0  0  0  0  0
    4.8585    1.2405    0.0000 C   0  0  0  0  0  0  0  0  0  0  0  0
    5.6855    1.2405    0.0000 C   0  0  0  0  0  0  0  0  0  0  0  0
    6.0990    1.9567    0.0000 C   0  0  0  0  0  0  0  0  0  0  0  0
    6.9260    1.9567    0.0000 C   0  0  0  0  0  0  0  0  0  0  0  0
    7.3395    1.2405    0.0000 N   0  0  0  0  0  0  0  0  0  0  0  0
    6.9260    0.5243    0.0000 C   0  0  0  0  0  0  0  0  0  0  0  0
    6.0990    0.5243    0.0000 C   0  0  0  0  0  0  0  0  0  0  0  0
    4.3675    1.9090    0.0000 N   0  0  0  0  0  0  0  0  0  0  0  0
    3.5807    1.6546    0.0000 C   0  0  0  0  0  0  0  0  0  0  0  0
    2.8648    2.0687    0.0000 C   0  0  0  0  0  0  0  0  0  0  0  0
  1  2  1  0  0  0
  2 24  2  0  0  0
  2  3  1  0  0  0
  3  4  2  0  0  0
  4  5  1  0  0  0
  5  6  1  0  0  0
  6 12  1  0  0  0
  6  7  1  0  0  0
  7  8  1  0  0  0
  8  9  1  0  0  0
  9 10  1  0  0  0
  9 11  1  0  0  0
 11 12  1  0  0  0
  4 13  1  0  0  0
 13 23  1  0  0  0
 13 14  1  0  0  0
 14 15  2  0  0  0
 15 16  1  0  0  0
 16 21  1  0  0  0
 16 17  2  0  0  0
 17 18  1  0  0  0
 18 19  2  0  0  0
 19 20  1  0  0  0
 20 21  2  0  0  0
 15 22  1  0  0  0
 22 23  2  0  0  0
 23 24  1  0  0  0
M  END
>  <Entry>
13

>  <title>
17296

>  <rigid docking scores>
-18.2933

>  <InChIKey>
HDNNNVQZAVIRQM-UHFFFAOYSA-N

$$$$
atoms 22 bonds 24
dotmatics
mol io
 22 24  0  0  0  0  0  0  0  0999 V2000
   -3.1012    3.5637    0.0000 C   0  0  0  0  0  0  0  0  0  0  0  0
   -2.2743    3.5637    0.0000 C   0  0  0  0  0  0  0  0  0  0  0  0
   -1.8607    4.2800    0.0000 C   0  0  0  0  0  0  0  0  0  0  0  0
   -1.0338    4.2800    0.0000 C   0  0  0  0  0  0  0  0  0  0  0  0
   -0.6202    3.5637    0.0000 C   0  0  0  0  0  0  0  0  0  0  0  0
    0.2068    3.5637    0.0000 N   0  0  0  0  0  0  0  0  0  0  0  0
    0.6202    4.2800    0.0000 C   0  0  0  0  0  0  0  0  0  0  0  0
    0.2068    4.9962    0.0000 O   0  0  0  0  0  0  0  0  0  0  0  0
    1.4473    4.2800    0.0000 N   0  0  0  0  0  0  0  0  0  0  0  0
    1.8607    3.5637    0.0000 C   0  0  0  0  0  0  0  0  0  0  0  0
    2.6878    3.5637    0.0000 C   0  0  0  0  0  0  0  0  0  0  0  0
    3.1012    4.2800    0.0000 S   0  0  0  0  0  0  0  0  0  0  0  0
    2.6878    4.9962    0.0000 C   0  0  0  0  0  0  0  0  0  0  0  0
    1.8607    4.9962    0.0000 C   0  0  0  0  0  0  0  0  0  0  0  0
   -1.0338    2.8475    0.0000 C   0  0  0  0  0  0  0  0  0  0  0  0
   -0.6202    2.1313    0.0000 C   0  0  0  0  0  0  0  0  0  0  0  0
    0.2022    2.0449    0.0000 N   0  0  0  0  0  0  0  0  0  0  0  0
    0.3742    1.2360    0.0000 N   0  0  0  0  0  0  0  0  0  0  0  0
   -0.3420    0.8225    0.0000 C   0  0  0  0  0  0  0  0  0  0  0  0
   -0.4285    0.0000    0.0000 C   0  0  0  0  0  0  0  0  0  0  0  0
   -0.9566    1.3758    0.0000 N   0  0  0  0  0  0  0  0  0  0  0  0
   -1.8607    2.8475    0.0000 C   0  0  0  0  0  0  0  0  0  0  0  0
  1  2  1  0  0  0
  2 22  1  0  0  0
  2  3  2  0  0  0
  3  4  1  0  0  0
  4  5  2  0  0  0
  5  6  1  0  0  0
  6  7  1  0  0  0
  7  8  2  0  0  0
  7  9  1  0  0  0
  9 14  1  0  0  0
  9 10  1  0  0  0
 10 11  1  0  0  0
 11 12  1  0  0  0
 12 13  1  0  0  0
 13 14  1  0  0  0
  5 15  1  0  0  0
 15 16  1  0  0  0
 16 21  1  0  0  0
 16 17  2  0  0  0
 17 18  1  0  0  0
 18 19  1  0  0  0
 19 20  1  0  0  0
 19 21  2  0  0  0
 15 22  2  0  0  0
M  END
>  <Entry>
14

>  <title>
18658

>  <rigid docking scores>
-19.4251

>  <InChIKey>
RJFDSCYVCXOOCP-UHFFFAOYSA-N

$$$$
atoms 24 bonds 26
dotmatics
mol io
 24 26  0  0  0  0  0  0  0  0999 V2000
    7.8268   -0.7610    0.0000 C   0  0  0  0  0  0  0  0  0  0  0  0
    7.5744    0.0266    0.0000 C   0  0  0  0  0  0  0  0  0  0  0  0
    8.0654    0.6951    0.0000 C   0  0  0  0  0  0  0  0  0  0  0  0
    7.5744    1.3636    0.0000 S   0  0  0  0  0  0  0  0  0  0  0  0
    6.7876    1.1092    0.0000 C   0  0  0  0  0  0  0  0  0  0  0  0
    6.0717    1.5233    0.0000 N   0  0  0  0  0  0  0  0  0  0  0  0
    5.3559    1.1092    0.0000 C   0  0  0  0  0  0  0  0  0  0  0  0
    5.3559    0.2810    0.0000 C   0  0  0  0  0  0  0  0  0  0  0  0
    4.6400   -0.1332    0.0000 C   0  0  0  0  0  0  0  0  0  0  0  0
    4.6407   -0.9602    0.0000 O   0  0  0  0  0  0  0  0  0  0  0  0
    3.9235    0.2797    0.0000 N   0  0  0  0  0  0  0  0  0  0  0  0
    3.2076   -0.1344    0.0000 C   0  0  0  0  0  0  0  0  0  0  0  0
    2.4911    0.2785    0.0000 C   0  0  0  0  0  0  0  0  0  0  0  0
    1.7752   -0.1357    0.0000 N   0  0  0  0  0  0  0  0  0  0  0  0
    1.8377   -0.9603    0.0000 C   0  0  0  0  0  0  0  0  0  0  0  0
    1.2320   -1.5233    0.0000 C   0  0  0  0  0  0  0  0  0  0  0  0
    0.4141   -1.4008    0.0000 C   0  0  0  0  0  0  0  0  0  0  0  0
    0.0000   -0.6849    0.0000 C   0  0  0  0  0  0  0  0  0  0  0  0
    0.3015    0.0852    0.0000 C   0  0  0  0  0  0  0  0  0  0  0  0
    1.0915    0.3296    0.0000 C   0  0  0  0  0  0  0  0  0  0  0  0
    1.2141    1.1475    0.0000 O   0  3  0  0  0  0  0  0  0  0  0  0
    6.0717   -0.1332    0.0000 C   0  0  0  0  0  0  0  0  0  0  0  0
    6.0717   -0.9602    0.0000 O   0  0  0  0  0  0  0  0  0  0  0  0
    6.7876    0.2810    0.0000 N   0  0  0  0  0  0  0  0  0  0  0  0
  1  2  1  0  0  0
  2 24  1  0  0  0
  2  3  2  0  0  0
  3  4  1  0  0  0
  4  5  1  0  0  0
  5 24  1  0  0  0
  5  6  2  0  0  0
  6  7  1  0  0  0
  7  8  2  0  0  0
  8  9  1  0  0  0
  9 10  2  0  0  0
  9 11  1  0  0  0
 11 12  1  0  0  0
 12 13  1  0  0  0
 13 14  1  0  0  0
 14 20  1  0  0  0
 14 15  1  0  0  0
 15 16  1  0  0  0
 16 17  1  0  0  0
 17 18  1  0  0  0
 18 19  1  0  0  0
 19 20  1  0  0  0
 20 21  1  0  0  0
  8 22  1  0  0  0
 22 23  2  0  0  0
 22 24  1  0  0  0
M  END
>  <Entry>
15

>  <title>
20536

>  <rigid docking scores>
-15.9788

>  <InChIKey>
ZYFYYBHGKXPWDO-UHFFFAOYSA-O

$$$$
atoms 21 bonds 23
dotmatics
mol io
 21 23  0  0  0  0  0  0  0  0999 V2000
    8.6897   -0.7162    0.0000 F   0  0  0  0  0  0  0  0  0  0  0  0
    7.8627   -0.7162    0.0000 C   0  0  0  0  0  0  0  0  0  0  0  0
    7.4492    0.0000    0.0000 C   0  0  0  0  0  0  0  0  0  0  0  0
    6.6222    0.0000    0.0000 N   0  0  0  0  0  0  0  0  0  0  0  0
    6.2081   -0.7158    0.0000 C   0  0  0  0  0  0  0  0  0  0  0  0
    5.3799   -0.7158    0.0000 C   0  0  0  0  0  0  0  0  0  0  0  0
    4.9657    0.0000    0.0000 N   0  0  0  0  0  0  0  0  0  0  0  0
    4.1375    0.0000    0.0000 C   0  0  0  0  0  0  0  0  0  0  0  0
    3.7234   -0.7158    0.0000 C   0  0  0  0  0  0  0  0  0  0  0  0
    2.8951   -0.7158    0.0000 C   0  0  0  0  0  0  0  0  0  0  0  0
    2.4810    0.0000    0.0000 C   0  0  0  0  0  0  0  0  0  0  0  0
    1.6540    0.0000    0.0000 C   0  0  0  0  0  0  0  0  0  0  0  0
    1.2405   -0.7162    0.0000 C   0  0  0  0  0  0  0  0  0  0  0  0
    0.4135   -0.7162    0.0000 C   0  0  0  0  0  0  0  0  0  0  0  0
    0.0000    0.0000    0.0000 C   0  0  0  0  0  0  0  0  0  0  0  0
    0.4135    0.7162    0.0000 C   0  0  0  0  0  0  0  0  0  0  0  0
    1.2405    0.7162    0.0000 C   0  0  0  0  0  0  0  0  0  0  0  0
    2.8951    0.7158    0.0000 N   0  0  0  0  0  0  0  0  0  0  0  0
    3.7234    0.7158    0.0000 N   0  0  0  0  0  0  0  0  0  0  0  0
    5.3799    0.7158    0.0000 C   0  0  0  0  0  0  0  0  0  0  0  0
    6.2081    0.7158    0.0000 C   0  0  0  0  0  0  0  0  0  0  0  0
  1  2  1  0  0  0
  2  3  1  0  0  0
  3  4  1  0  0  0
  4 21  1  0  0  0
  4  5  1  0  0  0
  5  6  1  0  0  0
  6  7  1  0  0  0
  7  8  1  0  0  0
  8 19  1  0  0  0
  8  9  2  0  0  0
  9 10  1  0  0  0
 10 11  2  0  0  0
 11 12  1  0  0  0
 12 17  1  0  0  0
 12 13  2  0  0  0
 13 14  1  0  0  0
 14 15  2  0  0  0
 15 16  1  0  0  0
 16 17  2  0  0  0
 11 18  1  0  0  0
 18 19  2  0  0  0
  7 20  1  0  0  0
 20 21  1  0  0  0
M  END
>  <Entry>
16

>  <title>
22421

>  <rigid docking scores>
-16.9177

>  <InChIKey>
WQQMPPGCYPVYAS-UHFFFAOYSA-N

$$$$
atoms 22 bonds 24
dotmatics
mol io
 22 24  0  0  0  0  0  0  0  0999 V2000
    6.6247    2.5051    0.0000 C   0  0  0  0  0  0  0  0  0  0  0  0
    6.2106    1.7892    0.0000 P   0  3  0  0  0  0  0  0  0  0  0  0
    6.6235    1.0727    0.0000 C   0  0  0  0  0  0  0  0  0  0  0  0
    6.2094    0.3568    0.0000 C   0  0  0  0  0  0  0  0  0  0  0  0
    5.3824    0.3576    0.0000 C   0  0  0  0  0  0  0  0  0  0  0  0
    4.9682   -0.3583    0.0000 C   0  0  0  0  0  0  0  0  0  0  0  0
    5.3811   -1.0748    0.0000 O   0  0  0  0  0  0  0  0  0  0  0  0
    4.1412   -0.3576    0.0000 N   0  0  0  0  0  0  0  0  0  0  0  0
    3.7271   -1.0734    0.0000 C   0  0  0  0  0  0  0  0  0  0  0  0
    4.1412   -1.7892    0.0000 C   0  0  0  0  0  0  0  0  0  0  0  0
    3.7271   -2.5051    0.0000 C   0  0  0  0  0  0  0  0  0  0  0  0
    2.8989   -2.5051    0.0000 N   0  0  0  0  0  0  0  0  0  0  0  0
    2.4847   -1.7892    0.0000 C   0  0  0  0  0  0  0  0  0  0  0  0
    1.6565   -1.7892    0.0000 C   0  0  0  0  0  0  0  0  0  0  0  0
    1.2424   -2.5051    0.0000 C   0  0  0  0  0  0  0  0  0  0  0  0
    0.4141   -2.5051    0.0000 C   0  0  0  0  0  0  0  0  0  0  0  0
    0.0000   -1.7892    0.0000 N   0  0  0  0  0  0  0  0  0  0  0  0
    0.4141   -1.0734    0.0000 C   0  0  0  0  0  0  0  0  0  0  0  0
    1.2424   -1.0734    0.0000 C   0  0  0  0  0  0  0  0  0  0  0  0
    2.8989   -1.0734    0.0000 N   0  0  0  0  0  0  0  0  0  0  0  0
    4.9695    1.0741    0.0000 C   0  0  0  0  0  0  0  0  0  0  0  0
    5.3836    1.7900    0.0000 C   0  0  0  0  0  0  0  0  0  0  0  0
  1  2  2  0  0  0
  2 22  1  0  0  0
  2  3  1  0  0  0
  3  4  1  0  0  0
  4  5  1  0  0  0
  5  6  1  0  0  0
  6  7  2  0  0  0
  6  8  1  0  0  0
  8  9  1  0  0  0
  9 20  1  0  0  0
  9 10  2  0  0  0
 10 11  1  0  0  0
 11 12  2  0  0  0
 12 13  1  0  0  0
 13 14  1  0  0  0
 14 19  1  0  0  0
 14 15  2  0  0  0
 15 16  1  0  0  0
 16 17  2  0  0  0
 17 18  1  0  0  0
 18 19  2  0  0  0
 13 20  2  0  0  0
  5 21  1  0  0  0
 21 22  1  0  0  0
M  END
>  <Entry>
17

>  <title>
2277

>  <rigid docking scores>
-16.1123

>  <InChIKey>
LKAUFZRHWGTIQR-UHFFFAOYSA-O

$$$$
atoms 21 bonds 23
dotmatics
mol io
 21 23  0  0  0  0  0  0  0  0999 V2000
    0.3631    3.9871    0.0000 N   0  0  0  0  0  0  0  0  0  0  0  0
    1.1901    3.9871    0.0000 C   0  0  0  0  0  0  0  0  0  0  0  0
    1.6762    4.6562    0.0000 O   0  0  0  0  0  0  0  0  0  0  0  0
    2.4628    4.4006    0.0000 C   0  0  0  0  0  0  0  0  0  0  0  0
    2.4628    3.5736    0.0000 C   0  0  0  0  0  0  0  0  0  0  0  0
    1.6762    3.3180    0.0000 C   0  0  0  0  0  0  0  0  0  0  0  0
    1.4207    2.5315    0.0000 N   0  0  0  0  0  0  0  0  0  0  0  0
    0.6118    2.3596    0.0000 C   0  0  0  0  0  0  0  0  0  0  0  0
    0.3562    1.5730    0.0000 C   0  0  0  0  0  0  0  0  0  0  0  0
    0.9096    0.9585    0.0000 C   0  0  0  0  0  0  0  0  0  0  0  0
    0.6540    0.1719    0.0000 C   0  0  0  0  0  0  0  0  0  0  0  0
   -0.1549    0.0000    0.0000 C   0  0  0  0  0  0  0  0  0  0  0  0
   -0.7083    0.6146    0.0000 C   0  0  0  0  0  0  0  0  0  0  0  0
   -0.4527    1.4011    0.0000 C   0  0  0  0  0  0  0  0  0  0  0  0
   -1.0061    2.0157    0.0000 O   0  0  0  0  0  0  0  0  0  0  0  0
   -0.7505    2.8022    0.0000 C   0  0  0  0  0  0  0  0  0  0  0  0
   -1.3039    3.4168    0.0000 C   0  0  0  0  0  0  0  0  0  0  0  0
   -2.1264    3.3303    0.0000 C   0  0  0  0  0  0  0  0  0  0  0  0
   -2.4628    4.0858    0.0000 S   0  0  0  0  0  0  0  0  0  0  0  0
   -1.8482    4.6392    0.0000 C   0  0  0  0  0  0  0  0  0  0  0  0
   -1.1320    4.2257    0.0000 N   0  0  0  0  0  0  0  0  0  0  0  0
  1  2  2  0  0  0
  2  6  1  0  0  0
  2  3  1  0  0  0
  3  4  1  0  0  0
  4  5  1  0  0  0
  5  6  1  0  0  0
  6  7  1  0  0  0
  7  8  1  0  0  0
  8  9  1  0  0  0
  9 14  1  0  0  0
  9 10  2  0  0  0
 10 11  1  0  0  0
 11 12  2  0  0  0
 12 13  1  0  0  0
 13 14  2  0  0  0
 14 15  1  0  0  0
 15 16  1  0  0  0
 16 17  1  0  0  0
 17 21  1  0  0  0
 17 18  2  0  0  0
 18 19  1  0  0  0
 19 20  1  0  0  0
 20 21  2  0  0  0
M  END
>  <Entry>
18

>  <title>
22895

>  <rigid docking scores>
-15.6282

>  <InChIKey>
ZBRJMIJIDDETCK-UHFFFAOYSA-N

$$$$
atoms 19 bonds 21
dotmatics
mol io
 19 21  0  0  0  0  0  0  0  0999 V2000
    5.4005   -1.9738    0.0000 N   0  0  0  0  0  0  0  0  0  0  0  0
    4.5922   -1.7987    0.0000 C   0  0  0  0  0  0  0  0  0  0  0  0
    4.0364   -2.4110    0.0000 O   0  0  0  0  0  0  0  0  0  0  0  0
    4.3398   -1.0111    0.0000 N   0  0  0  0  0  0  0  0  0  0  0  0
    3.5316   -0.8360    0.0000 C   0  0  0  0  0  0  0  0  0  0  0  0
    2.9758   -1.4483    0.0000 C   0  0  0  0  0  0  0  0  0  0  0  0
    2.1675   -1.2732    0.0000 C   0  0  0  0  0  0  0  0  0  0  0  0
    1.9151   -0.4856    0.0000 C   0  0  0  0  0  0  0  0  0  0  0  0
    2.4709    0.1267    0.0000 C   0  0  0  0  0  0  0  0  0  0  0  0
    2.2185    0.9143    0.0000 C   0  0  0  0  0  0  0  0  0  0  0  0
    2.7096    1.5828    0.0000 N   0  0  0  0  0  0  0  0  0  0  0  0
    2.2185    2.2513    0.0000 N   0  0  0  0  0  0  0  0  0  0  0  0
    1.4317    1.9969    0.0000 C   0  0  0  0  0  0  0  0  0  0  0  0
    1.4317    1.1687    0.0000 N   0  0  0  0  0  0  0  0  0  0  0  0
    0.7158    0.7545    0.0000 C   0  0  0  0  0  0  0  0  0  0  0  0
    0.0000    1.1687    0.0000 C   0  0  0  0  0  0  0  0  0  0  0  0
    0.0000    1.9969    0.0000 C   0  0  0  0  0  0  0  0  0  0  0  0
    0.7158    2.4110    0.0000 C   0  0  0  0  0  0  0  0  0  0  0  0
    3.2792   -0.0484    0.0000 C   0  0  0  0  0  0  0  0  0  0  0  0
  1  2  1  0  0  0
  2  3  2  0  0  0
  2  4  1  0  0  0
  4  5  1  0  0  0
  5 19  1  0  0  0
  5  6  2  0  0  0
  6  7  1  0  0  0
  7  8  2  0  0  0
  8  9  1  0  0  0
  9 10  1  0  0  0
 10 14  1  0  0  0
 10 11  2  0  0  0
 11 12  1  0  0  0
 12 13  2  0  0  0
 13 18  1  0  0  0
 13 14  1  0  0  0
 14 15  1  0  0  0
 15 16  1  0  0  0
 16 17  1  0  0  0
 17 18  1  0  0  0
  9 19  2  0  0  0
M  END
>  <Entry>
19

>  <title>
23056

>  <rigid docking scores>
-17.031

>  <InChIKey>
QRGHTDSPIWQZIS-UHFFFAOYSA-N

$$$$
atoms 24 bonds 27
dotmatics
mol io
 24 27  0  0  0  0  0  0  0  0999 V2000
    5.4929    1.4884    0.0000 O   0  0  0  0  0  0  0  0  0  0  0  0
    5.9064    0.7722    0.0000 C   0  0  0  0  0  0  0  0  0  0  0  0
    5.4929    0.0560    0.0000 C   0  0  0  0  0  0  0  0  0  0  0  0
    5.9064   -0.6602    0.0000 C   0  0  0  0  0  0  0  0  0  0  0  0
    5.4929   -1.3764    0.0000 C   0  0  0  0  0  0  0  0  0  0  0  0
    4.6659   -1.3764    0.0000 C   0  0  0  0  0  0  0  0  0  0  0  0
    4.2524   -0.6602    0.0000 N   0  0  0  0  0  0  0  0  0  0  0  0
    3.4254   -0.6602    0.0000 C   0  0  0  0  0  0  0  0  0  0  0  0
    2.9344   -1.3287    0.0000 N   0  0  0  0  0  0  0  0  0  0  0  0
    2.1475   -1.0743    0.0000 C   0  0  0  0  0  0  0  0  0  0  0  0
    1.4317   -1.4884    0.0000 C   0  0  0  0  0  0  0  0  0  0  0  0
    0.7158   -1.0743    0.0000 C   0  0  0  0  0  0  0  0  0  0  0  0
    0.7158   -0.2461    0.0000 C   0  0  0  0  0  0  0  0  0  0  0  0
    0.0000    0.1681    0.0000 F   0  0  0  0  0  0  0  0  0  0  0  0
    1.4317    0.1681    0.0000 C   0  0  0  0  0  0  0  0  0  0  0  0
    2.1475   -0.2461    0.0000 C   0  0  0  0  0  0  0  0  0  0  0  0
    2.9344    0.0083    0.0000 N   0  0  0  0  0  0  0  0  0  0  0  0
    4.6659    0.0560    0.0000 C   0  0  0  0  0  0  0  0  0  0  0  0
    6.7334    0.7722    0.0000 N   0  0  0  0  0  0  0  0  0  0  0  0
    7.1469    1.4884    0.0000 C   0  0  0  0  0  0  0  0  0  0  0  0
    7.9739    1.4884    0.0000 C   0  0  0  0  0  0  0  0  0  0  0  0
    8.3874    0.7722    0.0000 S   0  0  0  0  0  0  0  0  0  0  0  0
    7.9739    0.0560    0.0000 C   0  0  0  0  0  0  0  0  0  0  0  0
    7.1469    0.0560    0.0000 C   0  0  0  0  0  0  0  0  0  0  0  0
  1  2  2  0  0  0
  2  3  1  0  0  0
  3 18  1  0  0  0
  3  4  1  0  0  0
  4  5  1  0  0  0
  5  6  1  0  0  0
  6  7  1  0  0  0
  7  8  1  0  0  0
  8 17  1  0  0  0
  8  9  2  0  0  0
  9 10  1  0  0  0
 10 16  1  0  0  0
 10 11  2  0  0  0
 11 12  1  0  0  0
 12 13  2  0  0  0
 13 14  1  0  0  0
 13 15  1  0  0  0
 15 16  2  0  0  0
 16 17  1  0  0  0
  7 18  1  0  0  0
  2 19  1  0  0  0
 19 24  1  0  0  0
 19 20  1  0  0  0
 20 21  1  0  0  0
 21 22  1  0  0  0
 22 23  1  0  0  0
 23 24  1  0  0  0
M  END
>  <Entry>
20

>  <title>
24102

>  <rigid docking scores>
-17.288

>  <InChIKey>
FNUXNRQBXIKHIK-UHFFFAOYSA-N

$$$$
atoms 25 bonds 28
dotmatics
mol io
 25 28  0  0  0  0  0  0  0  0999 V2000
    6.4499   -0.4116    0.0000 O   0  0  0  0  0  0  0  0  0  0  0  0
    6.4492    0.4154    0.0000 C   0  0  0  0  0  0  0  0  0  0  0  0
    5.7327    0.8282    0.0000 C   0  0  0  0  0  0  0  0  0  0  0  0
    5.0168    0.4141    0.0000 N   0  0  0  0  0  0  0  0  0  0  0  0
    5.0175   -0.4129    0.0000 C   0  0  0  0  0  0  0  0  0  0  0  0
    4.3017   -0.8270    0.0000 C   0  0  0  0  0  0  0  0  0  0  0  0
    3.5851   -0.4141    0.0000 N   0  0  0  0  0  0  0  0  0  0  0  0
    2.8693   -0.8282    0.0000 C   0  0  0  0  0  0  0  0  0  0  0  0
    2.8693   -1.6565    0.0000 C   0  0  0  0  0  0  0  0  0  0  0  0
    2.1534   -2.0706    0.0000 C   0  0  0  0  0  0  0  0  0  0  0  0
    1.4317   -1.6565    0.0000 C   0  0  0  0  0  0  0  0  0  0  0  0
    0.7158   -2.0706    0.0000 C   0  0  0  0  0  0  0  0  0  0  0  0
    0.0000   -1.6565    0.0000 C   0  0  0  0  0  0  0  0  0  0  0  0
    0.0000   -0.8282    0.0000 C   0  0  0  0  0  0  0  0  0  0  0  0
    0.7158   -0.4141    0.0000 C   0  0  0  0  0  0  0  0  0  0  0  0
    1.4317   -0.8282    0.0000 C   0  0  0  0  0  0  0  0  0  0  0  0
    2.1534   -0.4141    0.0000 N   0  0  0  0  0  0  0  0  0  0  0  0
    3.5844    0.4129    0.0000 C   0  0  0  0  0  0  0  0  0  0  0  0
    4.3003    0.8270    0.0000 C   0  0  0  0  0  0  0  0  0  0  0  0
    7.1651    0.8295    0.0000 N   0  0  0  0  0  0  0  0  0  0  0  0
    7.1643    1.6565    0.0000 C   0  0  0  0  0  0  0  0  0  0  0  0
    7.8802    2.0706    0.0000 C   0  0  0  0  0  0  0  0  0  0  0  0
    8.5967    1.6577    0.0000 N   0  0  0  0  0  0  0  0  0  0  0  0
    8.5975    0.8307    0.0000 C   0  0  0  0  0  0  0  0  0  0  0  0
    7.8816    0.4166    0.0000 C   0  0  0  0  0  0  0  0  0  0  0  0
  1  2  2  0  0  0
  2  3  1  0  0  0
  3  4  1  0  0  0
  4 19  1  0  0  0
  4  5  1  0  0  0
  5  6  1  0  0  0
  6  7  1  0  0  0
  7  8  1  0  0  0
  8 17  1  0  0  0
  8  9  2  0  0  0
  9 10  1  0  0  0
 10 11  2  0  0  0
 11 16  1  0  0  0
 11 12  1  0  0  0
 12 13  2  0  0  0
 13 14  1  0  0  0
 14 15  2  0  0  0
 15 16  1  0  0  0
 16 17  2  0  0  0
  7 18  1  0  0  0
 18 19  1  0  0  0
  2 20  1  0  0  0
 20 25  1  0  0  0
 20 21  1  0  0  0
 21 22  1  0  0  0
 22 23  1  0  0  0
 23 24  1  0  0  0
 24 25  1  0  0  0
M  END
>  <Entry>
21

>  <title>
24737

>  <rigid docking scores>
-17.0895

>  <InChIKey>
ILVYXNCUZCIQRS-UHFFFAOYSA-N

$$$$
atoms 19 bonds 21
dotmatics
mol io
 19 21  0  0  0  0  0  0  0  0999 V2000
    5.0168    1.2424    0.0000 O   0  0  0  0  0  0  0  0  0  0  0  0
    5.0175    0.4154    0.0000 C   0  0  0  0  0  0  0  0  0  0  0  0
    4.3017    0.0012    0.0000 C   0  0  0  0  0  0  0  0  0  0  0  0
    3.5851    0.4141    0.0000 S   0  0  0  0  0  0  0  0  0  0  0  0
    2.8693    0.0000    0.0000 C   0  0  0  0  0  0  0  0  0  0  0  0
    2.1534    0.4141    0.0000 N   0  0  0  0  0  0  0  0  0  0  0  0
    1.4317    0.0000    0.0000 C   0  0  0  0  0  0  0  0  0  0  0  0
    0.7158    0.4141    0.0000 C   0  0  0  0  0  0  0  0  0  0  0  0
    0.0000    0.0000    0.0000 C   0  0  0  0  0  0  0  0  0  0  0  0
    0.0000   -0.8282    0.0000 C   0  0  0  0  0  0  0  0  0  0  0  0
    0.7158   -1.2424    0.0000 C   0  0  0  0  0  0  0  0  0  0  0  0
    1.4317   -0.8282    0.0000 C   0  0  0  0  0  0  0  0  0  0  0  0
    2.1534   -1.2424    0.0000 N   0  0  0  0  0  0  0  0  0  0  0  0
    2.8693   -0.8282    0.0000 C   0  0  0  0  0  0  0  0  0  0  0  0
    3.5851   -1.2424    0.0000 Cl  0  0  0  0  0  0  0  0  0  0  0  0
    5.7341    0.0025    0.0000 N   0  0  0  0  0  0  0  0  0  0  0  0
    6.4499    0.4166    0.0000 C   0  0  0  0  0  0  0  0  0  0  0  0
    6.8628    1.1332    0.0000 C   0  0  0  0  0  0  0  0  0  0  0  0
    7.2769    0.4173    0.0000 C   0  0  0  0  0  0  0  0  0  0  0  0
  1  2  2  0  0  0
  2  3  1  0  0  0
  3  4  1  0  0  0
  4  5  1  0  0  0
  5 14  1  0  0  0
  5  6  2  0  0  0
  6  7  1  0  0  0
  7 12  1  0  0  0
  7  8  2  0  0  0
  8  9  1  0  0  0
  9 10  2  0  0  0
 10 11  1  0  0  0
 11 12  2  0  0  0
 12 13  1  0  0  0
 13 14  2  0  0  0
 14 15  1  0  0  0
  2 16  1  0  0  0
 16 17  1  0  0  0
 17 19  1  0  0  0
 17 18  1  0  0  0
 18 19  1  0  0  0
M  END
>  <Entry>
22

>  <title>
24943

>  <rigid docking scores>
-17.265

>  <InChIKey>
XXORHNYVFWAXTL-UHFFFAOYSA-N

$$$$
atoms 21 bonds 23
dotmatics
mol io
 21 23  0  0  0  0  0  0  0  0999 V2000
    3.5844    1.1570    0.0000 O   0  0  0  0  0  0  0  0  0  0  0  0
    3.5851    0.3300    0.0000 C   0  0  0  0  0  0  0  0  0  0  0  0
    4.3017   -0.0828    0.0000 N   0  0  0  0  0  0  0  0  0  0  0  0
    5.0175    0.3313    0.0000 C   0  0  0  0  0  0  0  0  0  0  0  0
    4.9318   -0.4913    0.0000 C   0  0  0  0  0  0  0  0  0  0  0  0
    5.6013   -0.9768    0.0000 O   0  0  0  0  0  0  0  0  0  0  0  0
    4.1766   -0.8283    0.0000 O   0  0  0  0  0  0  0  0  0  0  0  0
    5.7733   -0.0044    0.0000 C   0  0  0  0  0  0  0  0  0  0  0  0
    6.3262    0.6106    0.0000 C   0  0  0  0  0  0  0  0  0  0  0  0
    5.9120    1.3265    0.0000 S   0  0  0  0  0  0  0  0  0  0  0  0
    5.1033    1.1538    0.0000 C   0  0  0  0  0  0  0  0  0  0  0  0
    2.8693   -0.0841    0.0000 C   0  0  0  0  0  0  0  0  0  0  0  0
    2.8693   -0.9123    0.0000 C   0  0  0  0  0  0  0  0  0  0  0  0
    2.1534   -1.3265    0.0000 C   0  0  0  0  0  0  0  0  0  0  0  0
    1.4317   -0.9123    0.0000 C   0  0  0  0  0  0  0  0  0  0  0  0
    0.7158   -1.3265    0.0000 C   0  0  0  0  0  0  0  0  0  0  0  0
    0.0000   -0.9123    0.0000 C   0  0  0  0  0  0  0  0  0  0  0  0
    0.0000   -0.0841    0.0000 C   0  0  0  0  0  0  0  0  0  0  0  0
    0.7158    0.3300    0.0000 C   0  0  0  0  0  0  0  0  0  0  0  0
    1.4317   -0.0841    0.0000 C   0  0  0  0  0  0  0  0  0  0  0  0
    2.1534    0.3300    0.0000 N   0  0  0  0  0  0  0  0  0  0  0  0
  1  2  2  0  0  0
  2  3  1  0  0  0
  3  4  1  0  0  0
  4 11  1  0  0  0
  4  5  1  0  0  0
  5  6  2  0  0  0
  5  7  1  0  0  0
  4  8  1  0  0  0
  8  9  1  0  0  0
  9 10  1  0  0  0
 10 11  1  0  0  0
  2 12  1  0  0  0
 12 21  1  0  0  0
 12 13  2  0  0  0
 13 14  1  0  0  0
 14 15  2  0  0  0
 15 20  1  0  0  0
 15 16  1  0  0  0
 16 17  2  0  0  0
 17 18  1  0  0  0
 18 19  2  0  0  0
 19 20  1  0  0  0
 20 21  2  0  0  0
M  END
>  <Entry>
23

>  <title>
25405

>  <rigid docking scores>
-15.3909

>  <InChIKey>
HITHQBOZLNZWHY-UHFFFAOYSA-N

>  <Pubchem>
61685513

$$$$
atoms 22 bonds 25
dotmatics
mol io
 22 25  0  0  0  0  0  0  0  0999 V2000
    2.6724    2.3208    0.0000 O   0  0  0  0  0  0  0  0  0  0  0  0
    1.8641    2.1457    0.0000 C   0  0  0  0  0  0  0  0  0  0  0  0
    1.6117    1.3581    0.0000 N   0  0  0  0  0  0  0  0  0  0  0  0
    2.1675    0.7458    0.0000 C   0  0  0  0  0  0  0  0  0  0  0  0
    2.9758    0.9209    0.0000 C   0  0  0  0  0  0  0  0  0  0  0  0
    3.5316    0.3086    0.0000 C   0  0  0  0  0  0  0  0  0  0  0  0
    3.2792   -0.4790    0.0000 C   0  0  0  0  0  0  0  0  0  0  0  0
    2.4709   -0.6542    0.0000 C   0  0  0  0  0  0  0  0  0  0  0  0
    2.2185   -1.4417    0.0000 N   0  0  0  0  0  0  0  0  0  0  0  0
    2.7096   -2.1102    0.0000 N   0  0  0  0  0  0  0  0  0  0  0  0
    2.2185   -2.7787    0.0000 C   0  0  0  0  0  0  0  0  0  0  0  0
    2.4709   -3.5663    0.0000 O   0  0  0  0  0  0  0  0  0  0  0  0
    1.4317   -2.5243    0.0000 C   0  0  0  0  0  0  0  0  0  0  0  0
    1.4317   -1.6961    0.0000 C   0  0  0  0  0  0  0  0  0  0  0  0
    0.7158   -1.2820    0.0000 C   0  0  0  0  0  0  0  0  0  0  0  0
    0.0000   -1.6961    0.0000 C   0  0  0  0  0  0  0  0  0  0  0  0
    0.0000   -2.5243    0.0000 C   0  0  0  0  0  0  0  0  0  0  0  0
    0.7158   -2.9385    0.0000 C   0  0  0  0  0  0  0  0  0  0  0  0
    1.9151   -0.0418    0.0000 C   0  0  0  0  0  0  0  0  0  0  0  0
    1.3083    2.7580    0.0000 C   0  0  0  0  0  0  0  0  0  0  0  0
    0.5208    3.0104    0.0000 C   0  0  0  0  0  0  0  0  0  0  0  0
    1.1331    3.5663    0.0000 C   0  0  0  0  0  0  0  0  0  0  0  0
  1  2  2  0  0  0
  2  3  1  0  0  0
  3  4  1  0  0  0
  4 19  1  0  0  0
  4  5  2  0  0  0
  5  6  1  0  0  0
  6  7  2  0  0  0
  7  8  1  0  0  0
  8  9  1  0  0  0
  9 14  1  0  0  0
  9 10  1  0  0  0
 10 11  1  0  0  0
 11 12  2  0  0  0
 11 13  1  0  0  0
 13 18  1  0  0  0
 13 14  2  0  0  0
 14 15  1  0  0  0
 15 16  1  0  0  0
 16 17  1  0  0  0
 17 18  1  0  0  0
  8 19  2  0  0  0
  2 20  1  0  0  0
 20 22  1  0  0  0
 20 21  1  0  0  0
 21 22  1  0  0  0
M  END
>  <Entry>
24

>  <title>
26398

>  <rigid docking scores>
-16.4065

>  <InChIKey>
RWPSEFKGDHGMHQ-UHFFFAOYSA-N

$$$$
atoms 24 bonds 27
dotmatics
mol io
 24 27  0  0  0  0  0  0  0  0999 V2000
    0.0000   -2.0650    0.0000 O   0  0  0  0  0  0  0  0  0  0  0  0
    0.7166   -1.6521    0.0000 C   0  0  0  0  0  0  0  0  0  0  0  0
    1.4324   -2.0663    0.0000 C   0  0  0  0  0  0  0  0  0  0  0  0
    1.4324   -2.8945    0.0000 C   0  0  0  0  0  0  0  0  0  0  0  0
    2.1482   -3.3086    0.0000 C   0  0  0  0  0  0  0  0  0  0  0  0
    2.8641   -2.8945    0.0000 C   0  0  0  0  0  0  0  0  0  0  0  0
    2.8641   -2.0663    0.0000 C   0  0  0  0  0  0  0  0  0  0  0  0
    2.1482   -1.6521    0.0000 C   0  0  0  0  0  0  0  0  0  0  0  0
    3.6509   -1.8119    0.0000 O   0  0  0  0  0  0  0  0  0  0  0  0
    4.1420   -2.4804    0.0000 C   0  0  0  0  0  0  0  0  0  0  0  0
    3.6509   -3.1489    0.0000 O   0  0  0  0  0  0  0  0  0  0  0  0
    0.7173   -0.8251    0.0000 N   0  0  0  0  0  0  0  0  0  0  0  0
    0.0014   -0.4110    0.0000 C   0  0  0  0  0  0  0  0  0  0  0  0
    0.0022    0.4160    0.0000 C   0  0  0  0  0  0  0  0  0  0  0  0
    0.7187    0.8289    0.0000 N   0  0  0  0  0  0  0  0  0  0  0  0
    0.7194    1.6559    0.0000 C   0  0  0  0  0  0  0  0  0  0  0  0
    1.4360    2.0687    0.0000 C   0  0  0  0  0  0  0  0  0  0  0  0
    1.4367    2.8957    0.0000 C   0  0  0  0  0  0  0  0  0  0  0  0
    2.1533    3.3086    0.0000 C   0  0  0  0  0  0  0  0  0  0  0  0
    2.8691    2.8945    0.0000 C   0  0  0  0  0  0  0  0  0  0  0  0
    2.8684    2.0675    0.0000 C   0  0  0  0  0  0  0  0  0  0  0  0
    2.1518    1.6546    0.0000 C   0  0  0  0  0  0  0  0  0  0  0  0
    1.4346    0.4147    0.0000 C   0  0  0  0  0  0  0  0  0  0  0  0
    1.4338   -0.4123    0.0000 C   0  0  0  0  0  0  0  0  0  0  0  0
  1  2  2  0  0  0
  2  3  1  0  0  0
  3  8  1  0  0  0
  3  4  2  0  0  0
  4  5  1  0  0  0
  5  6  2  0  0  0
  6 11  1  0  0  0
  6  7  1  0  0  0
  7  8  2  0  0  0
  7  9  1  0  0  0
  9 10  1  0  0  0
 10 11  1  0  0  0
  2 12  1  0  0  0
 12 24  1  0  0  0
 12 13  1  0  0  0
 13 14  1  0  0  0
 14 15  1  0  0  0
 15 16  1  0  0  0
 16 17  1  0  0  0
 17 22  1  0  0  0
 17 18  2  0  0  0
 18 19  1  0  0  0
 19 20  2  0  0  0
 20 21  1  0  0  0
 21 22  2  0  0  0
 15 23  1  0  0  0
 23 24  1  0  0  0
M  END
>  <Entry>
25

>  <title>
28427

>  <rigid docking scores>
-16.2936

>  <InChIKey>
FRUMFONMWVLIPE-UHFFFAOYSA-N

>  <ChEMBL>
CHEMBL3184637

>  <ZINC>
ZINC000019372093

>  <eMolecules>
1094908

>  <Pubchem>
803605

>  <Mcule>
MCULE-9446380895

>  <MolPort>
MolPort-001-031-651

$$$$
atoms 23 bonds 26
dotmatics
mol io
 23 26  0  0  0  0  0  0  0  0999 V2000
    2.8677    1.6528    0.0000 O   0  0  0  0  0  0  0  0  0  0  0  0
    2.8670    0.8258    0.0000 C   0  0  0  0  0  0  0  0  0  0  0  0
    3.5828    0.4116    0.0000 C   0  0  0  0  0  0  0  0  0  0  0  0
    3.5828   -0.4166    0.0000 C   0  0  0  0  0  0  0  0  0  0  0  0
    4.2987   -0.8307    0.0000 C   0  0  0  0  0  0  0  0  0  0  0  0
    5.0145   -0.4166    0.0000 C   0  0  0  0  0  0  0  0  0  0  0  0
    5.0145    0.4116    0.0000 C   0  0  0  0  0  0  0  0  0  0  0  0
    4.2987    0.8258    0.0000 C   0  0  0  0  0  0  0  0  0  0  0  0
    5.8013    0.6660    0.0000 O   0  0  0  0  0  0  0  0  0  0  0  0
    6.2924   -0.0025    0.0000 C   0  0  0  0  0  0  0  0  0  0  0  0
    5.8013   -0.6710    0.0000 O   0  0  0  0  0  0  0  0  0  0  0  0
    2.1504    0.4129    0.0000 N   0  0  0  0  0  0  0  0  0  0  0  0
    2.1497   -0.4141    0.0000 C   0  0  0  0  0  0  0  0  0  0  0  0
    1.4331   -0.8270    0.0000 C   0  0  0  0  0  0  0  0  0  0  0  0
    1.4324   -1.6540    0.0000 C   0  0  0  0  0  0  0  0  0  0  0  0
    0.7158   -2.0669    0.0000 C   0  0  0  0  0  0  0  0  0  0  0  0
    0.0000   -1.6528    0.0000 C   0  0  0  0  0  0  0  0  0  0  0  0
    0.0007   -0.8258    0.0000 C   0  0  0  0  0  0  0  0  0  0  0  0
    0.7173   -0.4129    0.0000 C   0  0  0  0  0  0  0  0  0  0  0  0
    0.7180    0.4141    0.0000 C   0  0  0  0  0  0  0  0  0  0  0  0
    1.4346    0.8270    0.0000 C   0  0  0  0  0  0  0  0  0  0  0  0
    1.4353    1.6540    0.0000 C   0  0  0  0  0  0  0  0  0  0  0  0
    2.1518    2.0669    0.0000 O   0  0  0  0  0  0  0  0  0  0  0  0
  1  2  2  0  0  0
  2  3  1  0  0  0
  3  8  1  0  0  0
  3  4  2  0  0  0
  4  5  1  0  0  0
  5  6  2  0  0  0
  6 11  1  0  0  0
  6  7  1  0  0  0
  7  8  2  0  0  0
  7  9  1  0  0  0
  9 10  1  0  0  0
 10 11  1  0  0  0
  2 12  1  0  0  0
 12 21  1  0  0  0
 12 13  1  0  0  0
 13 14  1  0  0  0
 14 19  1  0  0  0
 14 15  2  0  0  0
 15 16  1  0  0  0
 16 17  2  0  0  0
 17 18  1  0  0  0
 18 19  2  0  0  0
 19 20  1  0  0  0
 20 21  1  0  0  0
 21 22  1  0  0  0
 22 23  1  0  0  0
M  END
>  <Entry>
26

>  <title>
28442

>  <rigid docking scores>
-20.0195

>  <InChIKey>
QAFKONKCPHZNDB-UHFFFAOYSA-N

$$$$
atoms 23 bonds 26
dotmatics
mol io
 23 26  0  0  0  0  0  0  0  0999 V2000
    4.3017    1.6047    0.0000 O   0  0  0  0  0  0  0  0  0  0  0  0
    3.5851    1.1918    0.0000 C   0  0  0  0  0  0  0  0  0  0  0  0
    2.8693    1.6060    0.0000 C   0  0  0  0  0  0  0  0  0  0  0  0
    2.8693    2.4342    0.0000 C   0  0  0  0  0  0  0  0  0  0  0  0
    2.1534    2.8483    0.0000 N   0  0  0  0  0  0  0  0  0  0  0  0
    1.4317    2.4342    0.0000 C   0  0  0  0  0  0  0  0  0  0  0  0
    0.7158    2.8483    0.0000 C   0  0  0  0  0  0  0  0  0  0  0  0
    0.0000    2.4342    0.0000 C   0  0  0  0  0  0  0  0  0  0  0  0
    0.0000    1.6060    0.0000 C   0  0  0  0  0  0  0  0  0  0  0  0
    0.7158    1.1918    0.0000 C   0  0  0  0  0  0  0  0  0  0  0  0
    1.4317    1.6060    0.0000 C   0  0  0  0  0  0  0  0  0  0  0  0
    2.1534    1.1918    0.0000 C   0  0  0  0  0  0  0  0  0  0  0  0
    3.5844    0.3648    0.0000 N   0  0  0  0  0  0  0  0  0  0  0  0
    4.2530   -0.1219    0.0000 C   0  0  0  0  0  0  0  0  0  0  0  0
    3.9968   -0.9082    0.0000 C   0  0  0  0  0  0  0  0  0  0  0  0
    3.1698   -0.9074    0.0000 C   0  0  0  0  0  0  0  0  0  0  0  0
    2.6831   -1.5761    0.0000 N   0  0  0  0  0  0  0  0  0  0  0  0
    2.9380   -2.3628    0.0000 C   0  0  0  0  0  0  0  0  0  0  0  0
    2.2685   -2.8483    0.0000 C   0  0  0  0  0  0  0  0  0  0  0  0
    1.5999   -2.3616    0.0000 C   0  0  0  0  0  0  0  0  0  0  0  0
    0.8131   -2.6165    0.0000 F   0  0  0  0  0  0  0  0  0  0  0  0
    1.8561   -1.5753    0.0000 C   0  0  0  0  0  0  0  0  0  0  0  0
    2.9149   -0.1207    0.0000 C   0  0  0  0  0  0  0  0  0  0  0  0
  1  2  2  0  0  0
  2  3  1  0  0  0
  3 12  1  0  0  0
  3  4  2  0  0  0
  4  5  1  0  0  0
  5  6  2  0  0  0
  6 11  1  0  0  0
  6  7  1  0  0  0
  7  8  2  0  0  0
  8  9  1  0  0  0
  9 10  2  0  0  0
 10 11  1  0  0  0
 11 12  2  0  0  0
  2 13  1  0  0  0
 13 23  1  0  0  0
 13 14  1  0  0  0
 14 15  1  0  0  0
 15 16  1  0  0  0
 16 17  1  0  0  0
 17 22  1  0  0  0
 17 18  1  0  0  0
 18 19  1  0  0  0
 19 20  1  0  0  0
 20 21  1  0  0  0
 20 22  1  0  0  0
 16 23  1  0  0  0
M  END
>  <Entry>
27

>  <title>
28812

>  <rigid docking scores>
-18.982

>  <InChIKey>
YBEIGBNQUPJNHJ-UHFFFAOYSA-N

$$$$
atoms 24 bonds 27
dotmatics
mol io
 24 27  0  0  0  0  0  0  0  0999 V2000
    4.3017    1.8751    0.0000 O   0  0  0  0  0  0  0  0  0  0  0  0
    3.5851    1.4622    0.0000 C   0  0  0  0  0  0  0  0  0  0  0  0
    2.8693    1.8764    0.0000 C   0  0  0  0  0  0  0  0  0  0  0  0
    2.8693    2.7046    0.0000 C   0  0  0  0  0  0  0  0  0  0  0  0
    2.1534    3.1187    0.0000 N   0  0  0  0  0  0  0  0  0  0  0  0
    1.4317    2.7046    0.0000 C   0  0  0  0  0  0  0  0  0  0  0  0
    0.7158    3.1187    0.0000 C   0  0  0  0  0  0  0  0  0  0  0  0
    0.0000    2.7046    0.0000 C   0  0  0  0  0  0  0  0  0  0  0  0
    0.0000    1.8764    0.0000 C   0  0  0  0  0  0  0  0  0  0  0  0
    0.7158    1.4622    0.0000 C   0  0  0  0  0  0  0  0  0  0  0  0
    1.4317    1.8764    0.0000 C   0  0  0  0  0  0  0  0  0  0  0  0
    2.1534    1.4622    0.0000 N   0  0  0  0  0  0  0  0  0  0  0  0
    3.5844    0.6352    0.0000 N   0  0  0  0  0  0  0  0  0  0  0  0
    4.3003    0.2211    0.0000 C   0  0  0  0  0  0  0  0  0  0  0  0
    4.2995   -0.6059    0.0000 C   0  0  0  0  0  0  0  0  0  0  0  0
    3.5830   -1.0188    0.0000 C   0  0  0  0  0  0  0  0  0  0  0  0
    3.5822   -1.8458    0.0000 N   0  0  0  0  0  0  0  0  0  0  0  0
    4.2509   -2.3324    0.0000 C   0  0  0  0  0  0  0  0  0  0  0  0
    3.9946   -3.1187    0.0000 C   0  0  0  0  0  0  0  0  0  0  0  0
    3.1676   -3.1180    0.0000 C   0  0  0  0  0  0  0  0  0  0  0  0
    2.9128   -2.3313    0.0000 C   0  0  0  0  0  0  0  0  0  0  0  0
    2.1265   -2.0750    0.0000 O   0  0  0  0  0  0  0  0  0  0  0  0
    2.8671   -0.6046    0.0000 C   0  0  0  0  0  0  0  0  0  0  0  0
    2.8678    0.2224    0.0000 C   0  0  0  0  0  0  0  0  0  0  0  0
  1  2  2  0  0  0
  2  3  1  0  0  0
  3 12  1  0  0  0
  3  4  2  0  0  0
  4  5  1  0  0  0
  5  6  2  0  0  0
  6 11  1  0  0  0
  6  7  1  0  0  0
  7  8  2  0  0  0
  8  9  1  0  0  0
  9 10  2  0  0  0
 10 11  1  0  0  0
 11 12  2  0  0  0
  2 13  1  0  0  0
 13 24  1  0  0  0
 13 14  1  0  0  0
 14 15  1  0  0  0
 15 16  1  0  0  0
 16 17  1  0  0  0
 17 21  1  0  0  0
 17 18  1  0  0  0
 18 19  1  0  0  0
 19 20  1  0  0  0
 20 21  1  0  0  0
 21 22  2  0  0  0
 16 23  1  0  0  0
 23 24  1  0  0  0
M  END
>  <Entry>
28

>  <title>
28816

>  <rigid docking scores>
-15.4509

>  <InChIKey>
UNPAXPZVWIHZMH-UHFFFAOYSA-N

$$$$
atoms 22 bonds 25
dotmatics
mol io
 22 25  0  0  0  0  0  0  0  0999 V2000
    0.0000   -0.2091    0.0000 O   0  0  0  0  0  0  0  0  0  0  0  0
    0.7867    0.0458    0.0000 C   0  0  0  0  0  0  0  0  0  0  0  0
    1.0430    0.8321    0.0000 N   0  0  0  0  0  0  0  0  0  0  0  0
    1.8700    0.8313    0.0000 C   0  0  0  0  0  0  0  0  0  0  0  0
    2.3567    1.5000    0.0000 C   0  0  0  0  0  0  0  0  0  0  0  0
    2.0210    2.2558    0.0000 C   0  0  0  0  0  0  0  0  0  0  0  0
    2.5076    2.9244    0.0000 C   0  0  0  0  0  0  0  0  0  0  0  0
    3.3300    2.8372    0.0000 C   0  0  0  0  0  0  0  0  0  0  0  0
    3.6657    2.0815    0.0000 N   0  0  0  0  0  0  0  0  0  0  0  0
    3.1791    1.4128    0.0000 C   0  0  0  0  0  0  0  0  0  0  0  0
    2.1249    0.0446    0.0000 N   0  0  0  0  0  0  0  0  0  0  0  0
    1.4554   -0.4409    0.0000 C   0  0  0  0  0  0  0  0  0  0  0  0
    1.4547   -1.2679    0.0000 C   0  0  0  0  0  0  0  0  0  0  0  0
    2.1705   -1.6820    0.0000 C   0  0  0  0  0  0  0  0  0  0  0  0
    2.1705   -2.5103    0.0000 C   0  0  0  0  0  0  0  0  0  0  0  0
    2.8863   -2.9244    0.0000 C   0  0  0  0  0  0  0  0  0  0  0  0
    3.6022   -2.5103    0.0000 C   0  0  0  0  0  0  0  0  0  0  0  0
    3.6022   -1.6820    0.0000 C   0  0  0  0  0  0  0  0  0  0  0  0
    2.8863   -1.2679    0.0000 C   0  0  0  0  0  0  0  0  0  0  0  0
    4.3890   -1.4276    0.0000 O   0  0  0  0  0  0  0  0  0  0  0  0
    4.8801   -2.0962    0.0000 C   0  0  0  0  0  0  0  0  0  0  0  0
    4.3890   -2.7647    0.0000 O   0  0  0  0  0  0  0  0  0  0  0  0
  1  2  2  0  0  0
  2 12  1  0  0  0
  2  3  1  0  0  0
  3  4  1  0  0  0
  4  5  1  0  0  0
  5 10  1  0  0  0
  5  6  2  0  0  0
  6  7  1  0  0  0
  7  8  2  0  0  0
  8  9  1  0  0  0
  9 10  2  0  0  0
  4 11  2  0  0  0
 11 12  1  0  0  0
 12 13  2  0  0  0
 13 14  1  0  0  0
 14 19  1  0  0  0
 14 15  2  0  0  0
 15 16  1  0  0  0
 16 17  2  0  0  0
 17 22  1  0  0  0
 17 18  1  0  0  0
 18 19  2  0  0  0
 18 20  1  0  0  0
 20 21  1  0  0  0
 21 22  1  0  0  0
M  END
>  <Entry>
29

>  <title>
29478

>  <rigid docking scores>
-17.7582

>  <InChIKey>
WMPTUELQXOKHTJ-SDQBBNPISA-N

$$$$
atoms 25 bonds 28
dotmatics
mol io
 25 28  0  0  0  0  0  0  0  0999 V2000
    3.7271    0.0004    0.0000 C   0  3  0  0  0  0  0  0  0  0  0  0
    2.8989    0.0004    0.0000 C   0  0  0  0  0  0  0  0  0  0  0  0
    2.4847    0.7162    0.0000 N   0  0  0  0  0  0  0  0  0  0  0  0
    1.6565    0.7162    0.0000 C   0  0  0  0  0  0  0  0  0  0  0  0
    1.2424    0.0004    0.0000 C   0  0  0  0  0  0  0  0  0  0  0  0
    0.4141    0.0004    0.0000 C   0  0  0  0  0  0  0  0  0  0  0  0
    0.0000    0.7162    0.0000 N   0  0  0  0  0  0  0  0  0  0  0  0
    0.4141    1.4320    0.0000 N   0  0  0  0  0  0  0  0  0  0  0  0
    1.2424    1.4320    0.0000 C   0  0  0  0  0  0  0  0  0  0  0  0
    2.8989    1.4320    0.0000 C   0  0  0  0  0  0  0  0  0  0  0  0
    3.7271    1.4320    0.0000 C   0  0  0  0  0  0  0  0  0  0  0  0
    4.1412    0.7162    0.0000 N   0  0  0  0  0  0  0  0  0  0  0  0
    4.9682    0.7162    0.0000 C   0  0  0  0  0  0  0  0  0  0  0  0
    5.3817    1.4324    0.0000 C   0  0  0  0  0  0  0  0  0  0  0  0
    6.2087    1.4324    0.0000 C   0  0  0  0  0  0  0  0  0  0  0  0
    6.6222    0.7162    0.0000 N   0  0  0  0  0  0  0  0  0  0  0  0
    7.4492    0.7162    0.0000 C   0  0  0  0  0  0  0  0  0  0  0  0
    7.8627    0.0000    0.0000 C   0  0  0  0  0  0  0  0  0  0  0  0
    8.6897    0.0000    0.0000 C   0  0  0  0  0  0  0  0  0  0  0  0
    9.1032   -0.7162    0.0000 C   0  0  0  0  0  0  0  0  0  0  0  0
    8.6897   -1.4324    0.0000 C   0  0  0  0  0  0  0  0  0  0  0  0
    7.8627   -1.4324    0.0000 C   0  0  0  0  0  0  0  0  0  0  0  0
    7.4492   -0.7162    0.0000 C   0  0  0  0  0  0  0  0  0  0  0  0
    6.2087    0.0000    0.0000 C   0  0  0  0  0  0  0  0  0  0  0  0
    5.3817    0.0000    0.0000 C   0  0  0  0  0  0  0  0  0  0  0  0
  1 12  1  0  0  0
  1  2  1  0  0  0
  2  3  1  0  0  0
  3  4  1  0  0  0
  4  9  1  0  0  0
  4  5  2  0  0  0
  5  6  1  0  0  0
  6  7  2  0  0  0
  7  8  1  0  0  0
  8  9  2  0  0  0
  3 10  1  0  0  0
 10 11  1  0  0  0
 11 12  1  0  0  0
 12 13  1  0  0  0
 13 25  1  0  0  0
 13 14  1  0  0  0
 14 15  1  0  0  0
 15 16  1  0  0  0
 16 17  1  0  0  0
 17 18  1  0  0  0
 18 23  1  0  0  0
 18 19  2  0  0  0
 19 20  1  0  0  0
 20 21  2  0  0  0
 21 22  1  0  0  0
 22 23  2  0  0  0
 16 24  1  0  0  0
 24 25  1  0  0  0
M  END
>  <Entry>
30

>  <title>
32031

>  <rigid docking scores>
-15.6358

>  <InChIKey>
HSNCZTOFXDWKSJ-UHFFFAOYSA-N

$$$$
atoms 26 bonds 29
dotmatics
mol io
 26 29  0  0  0  0  0  0  0  0999 V2000
   10.0153   -0.5195    0.0000 C   0  3  0  0  0  0  0  0  0  0  0  0
    9.1929   -0.6066    0.0000 N   0  0  0  0  0  0  0  0  0  0  0  0
    8.7800   -1.3232    0.0000 C   0  0  0  0  0  0  0  0  0  0  0  0
    7.9709   -1.1520    0.0000 C   0  0  0  0  0  0  0  0  0  0  0  0
    7.8838   -0.3296    0.0000 N   0  0  0  0  0  0  0  0  0  0  0  0
    7.1672    0.0833    0.0000 C   0  0  0  0  0  0  0  0  0  0  0  0
    6.4514   -0.3308    0.0000 C   0  0  0  0  0  0  0  0  0  0  0  0
    5.7348    0.0821    0.0000 C   0  0  0  0  0  0  0  0  0  0  0  0
    5.7341    0.9091    0.0000 C   0  0  0  0  0  0  0  0  0  0  0  0
    5.0175    1.3219    0.0000 N   0  0  0  0  0  0  0  0  0  0  0  0
    4.3017    0.9078    0.0000 C   0  0  0  0  0  0  0  0  0  0  0  0
    4.3024    0.0808    0.0000 O   0  0  0  0  0  0  0  0  0  0  0  0
    3.5851    1.3207    0.0000 C   0  0  0  0  0  0  0  0  0  0  0  0
    2.8693    0.9066    0.0000 N   0  0  0  0  0  0  0  0  0  0  0  0
    2.8693    0.0783    0.0000 C   0  0  0  0  0  0  0  0  0  0  0  0
    2.1534   -0.3358    0.0000 C   0  0  0  0  0  0  0  0  0  0  0  0
    1.4317    0.0783    0.0000 C   0  0  0  0  0  0  0  0  0  0  0  0
    0.7158   -0.3358    0.0000 C   0  0  0  0  0  0  0  0  0  0  0  0
    0.0000    0.0783    0.0000 C   0  0  0  0  0  0  0  0  0  0  0  0
    0.0000    0.9066    0.0000 C   0  0  0  0  0  0  0  0  0  0  0  0
    0.7158    1.3207    0.0000 C   0  0  0  0  0  0  0  0  0  0  0  0
    1.4317    0.9066    0.0000 C   0  0  0  0  0  0  0  0  0  0  0  0
    2.1534    1.3207    0.0000 C   0  0  0  0  0  0  0  0  0  0  0  0
    6.4499    1.3232    0.0000 C   0  0  0  0  0  0  0  0  0  0  0  0
    7.1665    0.9103    0.0000 C   0  0  0  0  0  0  0  0  0  0  0  0
    8.6390    0.0075    0.0000 C   0  0  0  0  0  0  0  0  0  0  0  0
  1  2  1  0  0  0
  2 26  1  0  0  0
  2  3  1  0  0  0
  3  4  1  0  0  0
  4  5  1  0  0  0
  5  6  1  0  0  0
  6 25  1  0  0  0
  6  7  2  0  0  0
  7  8  1  0  0  0
  8  9  2  0  0  0
  9 10  1  0  0  0
 10 11  1  0  0  0
 11 12  2  0  0  0
 11 13  1  0  0  0
 13 14  1  0  0  0
 14 23  1  0  0  0
 14 15  1  0  0  0
 15 16  1  0  0  0
 16 17  1  0  0  0
 17 22  1  0  0  0
 17 18  2  0  0  0
 18 19  1  0  0  0
 19 20  2  0  0  0
 20 21  1  0  0  0
 21 22  2  0  0  0
 22 23  1  0  0  0
  9 24  1  0  0  0
 24 25  2  0  0  0
  5 26  1  0  0  0
M  END
>  <Entry>
31

>  <title>
32293

>  <rigid docking scores>
-20.2458

>  <InChIKey>
RYAGIINSFMOMOC-UHFFFAOYSA-O

$$$$
atoms 26 bonds 29
dotmatics
mol io
 26 29  0  0  0  0  0  0  0  0999 V2000
    9.2968   -1.2386    0.0000 C   0  3  0  0  0  0  0  0  0  0  0  0
    8.4698   -1.2394    0.0000 N   0  0  0  0  0  0  0  0  0  0  0  0
    7.8855   -1.8247    0.0000 C   0  0  0  0  0  0  0  0  0  0  0  0
    7.3002   -1.2404    0.0000 C   0  0  0  0  0  0  0  0  0  0  0  0
    7.8845   -0.6551    0.0000 N   0  0  0  0  0  0  0  0  0  0  0  0
    7.8838    0.1719    0.0000 C   0  0  0  0  0  0  0  0  0  0  0  0
    7.1672    0.5848    0.0000 C   0  0  0  0  0  0  0  0  0  0  0  0
    6.4514    0.1707    0.0000 C   0  0  0  0  0  0  0  0  0  0  0  0
    5.7348    0.5835    0.0000 C   0  0  0  0  0  0  0  0  0  0  0  0
    5.7341    1.4105    0.0000 C   0  0  0  0  0  0  0  0  0  0  0  0
    5.0175    1.8234    0.0000 N   0  0  0  0  0  0  0  0  0  0  0  0
    4.3017    1.4093    0.0000 C   0  0  0  0  0  0  0  0  0  0  0  0
    4.3024    0.5823    0.0000 O   0  0  0  0  0  0  0  0  0  0  0  0
    3.5851    1.8222    0.0000 C   0  0  0  0  0  0  0  0  0  0  0  0
    2.8693    1.4080    0.0000 N   0  0  0  0  0  0  0  0  0  0  0  0
    2.8693    0.5798    0.0000 C   0  0  0  0  0  0  0  0  0  0  0  0
    2.1534    0.1657    0.0000 C   0  0  0  0  0  0  0  0  0  0  0  0
    1.4317    0.5798    0.0000 C   0  0  0  0  0  0  0  0  0  0  0  0
    0.7158    0.1657    0.0000 C   0  0  0  0  0  0  0  0  0  0  0  0
    0.0000    0.5798    0.0000 C   0  0  0  0  0  0  0  0  0  0  0  0
    0.0000    1.4080    0.0000 C   0  0  0  0  0  0  0  0  0  0  0  0
    0.7158    1.8222    0.0000 C   0  0  0  0  0  0  0  0  0  0  0  0
    1.4317    1.4080    0.0000 C   0  0  0  0  0  0  0  0  0  0  0  0
    2.1534    1.8222    0.0000 C   0  0  0  0  0  0  0  0  0  0  0  0
    6.4499    1.8247    0.0000 C   0  0  0  0  0  0  0  0  0  0  0  0
    7.1665    1.4118    0.0000 C   0  0  0  0  0  0  0  0  0  0  0  0
  1  2  1  0  0  0
  2  5  1  0  0  0
  2  3  1  0  0  0
  3  4  1  0  0  0
  4  5  1  0  0  0
  5  6  1  0  0  0
  6  7  1  0  0  0
  7 26  1  0  0  0
  7  8  2  0  0  0
  8  9  1  0  0  0
  9 10  2  0  0  0
 10 11  1  0  0  0
 11 12  1  0  0  0
 12 13  2  0  0  0
 12 14  1  0  0  0
 14 15  1  0  0  0
 15 24  1  0  0  0
 15 16  1  0  0  0
 16 17  1  0  0  0
 17 18  1  0  0  0
 18 23  1  0  0  0
 18 19  2  0  0  0
 19 20  1  0  0  0
 20 21  2  0  0  0
 21 22  1  0  0  0
 22 23  2  0  0  0
 23 24  1  0  0  0
 10 25  1  0  0  0
 25 26  2  0  0  0
M  END
>  <Entry>
32

>  <title>
32295

>  <rigid docking scores>
-15.9023

>  <InChIKey>
RBBUBAJSWXSBHD-UHFFFAOYSA-O

$$$$
atoms 22 bonds 24
dotmatics
mol io
 22 24  0  0  0  0  0  0  0  0999 V2000
    7.8845   -1.2399    0.0000 N   0  0  0  0  0  0  0  0  0  0  0  0
    7.8838   -0.4129    0.0000 C   0  0  0  0  0  0  0  0  0  0  0  0
    7.1672    0.0000    0.0000 C   0  0  0  0  0  0  0  0  0  0  0  0
    6.4514   -0.4141    0.0000 C   0  0  0  0  0  0  0  0  0  0  0  0
    5.7348   -0.0012    0.0000 C   0  0  0  0  0  0  0  0  0  0  0  0
    5.7341    0.8258    0.0000 C   0  0  0  0  0  0  0  0  0  0  0  0
    5.0175    1.2386    0.0000 N   0  0  0  0  0  0  0  0  0  0  0  0
    4.3017    0.8245    0.0000 C   0  0  0  0  0  0  0  0  0  0  0  0
    4.3024   -0.0025    0.0000 O   0  0  0  0  0  0  0  0  0  0  0  0
    3.5851    1.2374    0.0000 C   0  0  0  0  0  0  0  0  0  0  0  0
    2.8693    0.8233    0.0000 N   0  0  0  0  0  0  0  0  0  0  0  0
    2.8693   -0.0050    0.0000 C   0  0  0  0  0  0  0  0  0  0  0  0
    2.1534   -0.4191    0.0000 C   0  0  0  0  0  0  0  0  0  0  0  0
    1.4317   -0.0050    0.0000 C   0  0  0  0  0  0  0  0  0  0  0  0
    0.7158   -0.4191    0.0000 C   0  0  0  0  0  0  0  0  0  0  0  0
    0.0000   -0.0050    0.0000 C   0  0  0  0  0  0  0  0  0  0  0  0
    0.0000    0.8233    0.0000 C   0  0  0  0  0  0  0  0  0  0  0  0
    0.7158    1.2374    0.0000 C   0  0  0  0  0  0  0  0  0  0  0  0
    1.4317    0.8233    0.0000 C   0  0  0  0  0  0  0  0  0  0  0  0
    2.1534    1.2374    0.0000 C   0  0  0  0  0  0  0  0  0  0  0  0
    6.4499    1.2399    0.0000 C   0  0  0  0  0  0  0  0  0  0  0  0
    7.1665    0.8270    0.0000 C   0  0  0  0  0  0  0  0  0  0  0  0
  1  2  2  0  0  0
  2  3  1  0  0  0
  3 22  1  0  0  0
  3  4  2  0  0  0
  4  5  1  0  0  0
  5  6  2  0  0  0
  6  7  1  0  0  0
  7  8  1  0  0  0
  8  9  2  0  0  0
  8 10  1  0  0  0
 10 11  1  0  0  0
 11 20  1  0  0  0
 11 12  1  0  0  0
 12 13  1  0  0  0
 13 14  1  0  0  0
 14 19  1  0  0  0
 14 15  2  0  0  0
 15 16  1  0  0  0
 16 17  2  0  0  0
 17 18  1  0  0  0
 18 19  2  0  0  0
 19 20  1  0  0  0
  6 21  1  0  0  0
 21 22  2  0  0  0
M  END
>  <Entry>
33

>  <title>
33045

>  <rigid docking scores>
-18.3145

>  <InChIKey>
VTQBEXMLEAEGSJ-UHFFFAOYSA-N

$$$$
atoms 24 bonds 27
dotmatics
mol io
 24 27  0  0  0  0  0  0  0  0999 V2000
    9.1032    0.0000    0.0000 C   0  0  0  0  0  0  0  0  0  0  0  0
    8.6891   -0.7158    0.0000 C   0  0  0  0  0  0  0  0  0  0  0  0
    7.8609   -0.7158    0.0000 C   0  0  0  0  0  0  0  0  0  0  0  0
    7.4467    0.0000    0.0000 C   0  0  0  0  0  0  0  0  0  0  0  0
    6.6185    0.0000    0.0000 C   0  0  0  0  0  0  0  0  0  0  0  0
    6.2044   -0.7158    0.0000 C   0  0  0  0  0  0  0  0  0  0  0  0
    5.3761   -0.7158    0.0000 C   0  0  0  0  0  0  0  0  0  0  0  0
    4.9620    0.0000    0.0000 C   0  0  0  0  0  0  0  0  0  0  0  0
    4.1350    0.0000    0.0000 N   0  0  0  0  0  0  0  0  0  0  0  0
    3.7215   -0.7162    0.0000 C   0  0  0  0  0  0  0  0  0  0  0  0
    2.8945   -0.7162    0.0000 C   0  0  0  0  0  0  0  0  0  0  0  0
    2.4810    0.0000    0.0000 N   0  0  0  0  0  0  0  0  0  0  0  0
    1.6540    0.0000    0.0000 C   0  0  0  0  0  0  0  0  0  0  0  0
    1.2405   -0.7162    0.0000 C   0  0  0  0  0  0  0  0  0  0  0  0
    0.4135   -0.7162    0.0000 C   0  0  0  0  0  0  0  0  0  0  0  0
    0.0000    0.0000    0.0000 O   0  0  0  0  0  0  0  0  0  0  0  0
    0.4135    0.7162    0.0000 C   0  0  0  0  0  0  0  0  0  0  0  0
    1.2405    0.7162    0.0000 C   0  0  0  0  0  0  0  0  0  0  0  0
    2.8945    0.7162    0.0000 C   0  0  0  0  0  0  0  0  0  0  0  0
    3.7215    0.7162    0.0000 C   0  0  0  0  0  0  0  0  0  0  0  0
    5.3761    0.7158    0.0000 N   0  0  0  0  0  0  0  0  0  0  0  0
    6.2044    0.7158    0.0000 N   0  0  0  0  0  0  0  0  0  0  0  0
    7.8609    0.7158    0.0000 N   0  0  0  0  0  0  0  0  0  0  0  0
    8.6891    0.7158    0.0000 C   0  0  0  0  0  0  0  0  0  0  0  0
  1 24  1  0  0  0
  1  2  2  0  0  0
  2  3  1  0  0  0
  3  4  2  0  0  0
  4  5  1  0  0  0
  5 22  1  0  0  0
  5  6  2  0  0  0
  6  7  1  0  0  0
  7  8  2  0  0  0
  8  9  1  0  0  0
  9 20  1  0  0  0
  9 10  1  0  0  0
 10 11  1  0  0  0
 11 12  1  0  0  0
 12 13  1  0  0  0
 13 18  1  0  0  0
 13 14  1  0  0  0
 14 15  1  0  0  0
 15 16  1  0  0  0
 16 17  1  0  0  0
 17 18  1  0  0  0
 12 19  1  0  0  0
 19 20  1  0  0  0
  8 21  1  0  0  0
 21 22  2  0  0  0
  4 23  1  0  0  0
 23 24  2  0  0  0
M  END
>  <Entry>
34

>  <title>
33307

>  <rigid docking scores>
-17.0124

>  <InChIKey>
ILTRYALYGDONBH-UHFFFAOYSA-N

$$$$
atoms 24 bonds 27
dotmatics
mol io
 24 27  0  0  0  0  0  0  0  0999 V2000
    8.8572   -0.6544    0.0000 C   0  0  0  0  0  0  0  0  0  0  0  0
    8.4430   -1.3703    0.0000 C   0  0  0  0  0  0  0  0  0  0  0  0
    7.6148   -1.3703    0.0000 C   0  0  0  0  0  0  0  0  0  0  0  0
    7.2007   -0.6544    0.0000 C   0  0  0  0  0  0  0  0  0  0  0  0
    6.3724   -0.6544    0.0000 C   0  0  0  0  0  0  0  0  0  0  0  0
    5.9583   -1.3703    0.0000 C   0  0  0  0  0  0  0  0  0  0  0  0
    5.1300   -1.3703    0.0000 C   0  0  0  0  0  0  0  0  0  0  0  0
    4.7159   -0.6544    0.0000 C   0  0  0  0  0  0  0  0  0  0  0  0
    3.8889   -0.6544    0.0000 N   0  0  0  0  0  0  0  0  0  0  0  0
    3.4754   -1.3706    0.0000 C   0  0  0  0  0  0  0  0  0  0  0  0
    2.6484   -1.3706    0.0000 C   0  0  0  0  0  0  0  0  0  0  0  0
    2.2349   -0.6544    0.0000 N   0  0  0  0  0  0  0  0  0  0  0  0
    1.4079   -0.6544    0.0000 C   0  0  0  0  0  0  0  0  0  0  0  0
    0.9944    0.0618    0.0000 C   0  0  0  0  0  0  0  0  0  0  0  0
    0.1719    0.1482    0.0000 C   0  0  0  0  0  0  0  0  0  0  0  0
    0.0000    0.9571    0.0000 C   0  0  0  0  0  0  0  0  0  0  0  0
    0.7162    1.3706    0.0000 O   0  0  0  0  0  0  0  0  0  0  0  0
    1.3308    0.8173    0.0000 C   0  0  0  0  0  0  0  0  0  0  0  0
    2.6484    0.0618    0.0000 C   0  0  0  0  0  0  0  0  0  0  0  0
    3.4754    0.0618    0.0000 C   0  0  0  0  0  0  0  0  0  0  0  0
    5.1300    0.0614    0.0000 N   0  0  0  0  0  0  0  0  0  0  0  0
    5.9583    0.0614    0.0000 N   0  0  0  0  0  0  0  0  0  0  0  0
    7.6148    0.0614    0.0000 N   0  0  0  0  0  0  0  0  0  0  0  0
    8.4430    0.0614    0.0000 C   0  0  0  0  0  0  0  0  0  0  0  0
  1 24  1  0  0  0
  1  2  2  0  0  0
  2  3  1  0  0  0
  3  4  2  0  0  0
  4  5  1  0  0  0
  5 22  1  0  0  0
  5  6  2  0  0  0
  6  7  1  0  0  0
  7  8  2  0  0  0
  8  9  1  0  0  0
  9 20  1  0  0  0
  9 10  1  0  0  0
 10 11  1  0  0  0
 11 12  1  0  0  0
 12 13  1  0  0  0
 13 14  1  0  0  0
 14 18  1  0  0  0
 14 15  1  0  0  0
 15 16  1  0  0  0
 16 17  1  0  0  0
 17 18  1  0  0  0
 12 19  1  0  0  0
 19 20  1  0  0  0
  8 21  1  0  0  0
 21 22  2  0  0  0
  4 23  1  0  0  0
 23 24  2  0  0  0
M  END
>  <Entry>
35

>  <title>
33310

>  <rigid docking scores>
-15.6681

>  <InChIKey>
OBPACSFPLDHROL-UHFFFAOYSA-N

$$$$
atoms 21 bonds 24
dotmatics
mol io
 21 24  0  0  0  0  0  0  0  0999 V2000
    2.8670    1.4488    0.0000 C   0  0  0  0  0  0  0  0  0  0  0  0
    3.5828    1.0347    0.0000 N   0  0  0  0  0  0  0  0  0  0  0  0
    3.5821    0.2077    0.0000 C   0  0  0  0  0  0  0  0  0  0  0  0
    4.2979   -0.2064    0.0000 C   0  0  0  0  0  0  0  0  0  0  0  0
    4.2979   -1.0347    0.0000 C   0  0  0  0  0  0  0  0  0  0  0  0
    5.0138   -1.4488    0.0000 C   0  0  0  0  0  0  0  0  0  0  0  0
    5.7296   -1.0347    0.0000 C   0  0  0  0  0  0  0  0  0  0  0  0
    5.7296   -0.2064    0.0000 C   0  0  0  0  0  0  0  0  0  0  0  0
    5.0138    0.2077    0.0000 C   0  0  0  0  0  0  0  0  0  0  0  0
    6.5165    0.0480    0.0000 O   0  0  0  0  0  0  0  0  0  0  0  0
    7.0075   -0.6206    0.0000 C   0  0  0  0  0  0  0  0  0  0  0  0
    6.5165   -1.2891    0.0000 O   0  0  0  0  0  0  0  0  0  0  0  0
    2.8655   -0.2052    0.0000 C   0  0  0  0  0  0  0  0  0  0  0  0
    2.1497    0.2089    0.0000 C   0  0  0  0  0  0  0  0  0  0  0  0
    1.4331   -0.2039    0.0000 N   0  0  0  0  0  0  0  0  0  0  0  0
    1.4324   -1.0309    0.0000 C   0  0  0  0  0  0  0  0  0  0  0  0
    0.7158   -1.4438    0.0000 C   0  0  0  0  0  0  0  0  0  0  0  0
    0.0000   -1.0297    0.0000 C   0  0  0  0  0  0  0  0  0  0  0  0
    0.0007   -0.2027    0.0000 C   0  0  0  0  0  0  0  0  0  0  0  0
    0.7173    0.2102    0.0000 C   0  0  0  0  0  0  0  0  0  0  0  0
    2.1504    1.0359    0.0000 N   0  0  0  0  0  0  0  0  0  0  0  0
  1 21  1  0  0  0
  1  2  2  0  0  0
  2  3  1  0  0  0
  3  4  1  0  0  0
  4  9  1  0  0  0
  4  5  2  0  0  0
  5  6  1  0  0  0
  6  7  2  0  0  0
  7 12  1  0  0  0
  7  8  1  0  0  0
  8  9  2  0  0  0
  8 10  1  0  0  0
 10 11  1  0  0  0
 11 12  1  0  0  0
  3 13  2  0  0  0
 13 14  1  0  0  0
 14 15  1  0  0  0
 15 20  1  0  0  0
 15 16  1  0  0  0
 16 17  1  0  0  0
 17 18  1  0  0  0
 18 19  1  0  0  0
 19 20  1  0  0  0
 14 21  2  0  0  0
M  END
>  <Entry>
36

>  <title>
33736

>  <rigid docking scores>
-16.3343

>  <InChIKey>
NVGWHDSNTMMHTG-UHFFFAOYSA-N

>  <ZINC>
ZINC000426662252

>  <Pubchem>
119072558

>  <MolPort>
MolPort-042-575-959

$$$$
atoms 20 bonds 21
dotmatics
mol io
 20 21  0  0  0  0  0  0  0  0999 V2000
    0.0000   -1.2436    0.0000 C   0  0  0  0  0  0  0  0  0  0  0  0
    0.7158   -0.8295    0.0000 N   0  0  0  0  0  0  0  0  0  0  0  0
    0.7151   -0.0025    0.0000 C   0  0  0  0  0  0  0  0  0  0  0  0
    1.4324   -1.2424    0.0000 C   0  0  0  0  0  0  0  0  0  0  0  0
    2.1482   -0.8282    0.0000 C   0  0  0  0  0  0  0  0  0  0  0  0
    2.8648   -1.2411    0.0000 C   0  0  0  0  0  0  0  0  0  0  0  0
    3.5807   -0.8270    0.0000 C   0  0  0  0  0  0  0  0  0  0  0  0
    3.5799    0.0000    0.0000 O   0  0  0  0  0  0  0  0  0  0  0  0
    4.2972   -1.2399    0.0000 N   0  0  0  0  0  0  0  0  0  0  0  0
    5.0131   -0.8257    0.0000 C   0  0  0  0  0  0  0  0  0  0  0  0
    5.0131    0.0025    0.0000 C   0  0  0  0  0  0  0  0  0  0  0  0
    5.7289    0.4166    0.0000 C   0  0  0  0  0  0  0  0  0  0  0  0
    6.4447    0.0025    0.0000 C   0  0  0  0  0  0  0  0  0  0  0  0
    6.4447   -0.8257    0.0000 C   0  0  0  0  0  0  0  0  0  0  0  0
    5.7289   -1.2399    0.0000 C   0  0  0  0  0  0  0  0  0  0  0  0
    7.1665   -1.2399    0.0000 C   0  0  0  0  0  0  0  0  0  0  0  0
    7.8823   -0.8257    0.0000 C   0  0  0  0  0  0  0  0  0  0  0  0
    7.8823    0.0025    0.0000 C   0  0  0  0  0  0  0  0  0  0  0  0
    7.1665    0.4166    0.0000 N   0  0  0  0  0  0  0  0  0  0  0  0
    7.1724    1.2436    0.0000 C   0  0  0  0  0  0  0  0  0  0  0  0
  1  2  1  0  0  0
  2  3  1  0  0  0
  2  4  1  0  0  0
  4  5  1  0  0  0
  5  6  1  0  0  0
  6  7  1  0  0  0
  7  8  2  0  0  0
  7  9  1  0  0  0
  9 10  1  0  0  0
 10 15  1  0  0  0
 10 11  2  0  0  0
 11 12  1  0  0  0
 12 13  2  0  0  0
 13 19  1  0  0  0
 13 14  1  0  0  0
 14 15  2  0  0  0
 14 16  1  0  0  0
 16 17  1  0  0  0
 17 18  1  0  0  0
 18 19  1  0  0  0
 19 20  1  0  0  0
M  END
>  <Entry>
37

>  <title>
1-960

>  <rigid docking scores>
-16.1878

>  <InChIKey>
NMPUEXKMGGHEHY-UHFFFAOYSA-N

$$$$
atoms 21 bonds 23
dotmatics
mol io
 21 23  0  0  0  0  0  0  0  0999 V2000
    6.4492    1.2430    0.0000 C   0  0  0  0  0  0  0  0  0  0  0  0
    6.4499    0.4160    0.0000 C   0  0  0  0  0  0  0  0  0  0  0  0
    7.1665    0.0031    0.0000 N   0  0  0  0  0  0  0  0  0  0  0  0
    7.1672   -0.8239    0.0000 C   0  0  0  0  0  0  0  0  0  0  0  0
    6.4514   -1.2380    0.0000 C   0  0  0  0  0  0  0  0  0  0  0  0
    5.7348   -0.8251    0.0000 C   0  0  0  0  0  0  0  0  0  0  0  0
    5.7341    0.0019    0.0000 C   0  0  0  0  0  0  0  0  0  0  0  0
    5.0175    0.4147    0.0000 N   0  0  0  0  0  0  0  0  0  0  0  0
    4.3017    0.0006    0.0000 C   0  0  0  0  0  0  0  0  0  0  0  0
    4.3024   -0.8264    0.0000 O   0  0  0  0  0  0  0  0  0  0  0  0
    3.5851    0.4135    0.0000 C   0  0  0  0  0  0  0  0  0  0  0  0
    2.8693   -0.0006    0.0000 N   0  0  0  0  0  0  0  0  0  0  0  0
    2.8693   -0.8289    0.0000 C   0  0  0  0  0  0  0  0  0  0  0  0
    2.1534   -1.2430    0.0000 C   0  0  0  0  0  0  0  0  0  0  0  0
    1.4317   -0.8289    0.0000 C   0  0  0  0  0  0  0  0  0  0  0  0
    0.7158   -1.2430    0.0000 C   0  0  0  0  0  0  0  0  0  0  0  0
    0.0000   -0.8289    0.0000 C   0  0  0  0  0  0  0  0  0  0  0  0
    0.0000   -0.0006    0.0000 C   0  0  0  0  0  0  0  0  0  0  0  0
    0.7158    0.4135    0.0000 C   0  0  0  0  0  0  0  0  0  0  0  0
    1.4317   -0.0006    0.0000 C   0  0  0  0  0  0  0  0  0  0  0  0
    2.1534    0.4135    0.0000 C   0  0  0  0  0  0  0  0  0  0  0  0
  1  2  1  0  0  0
  2  7  1  0  0  0
  2  3  2  0  0  0
  3  4  1  0  0  0
  4  5  2  0  0  0
  5  6  1  0  0  0
  6  7  2  0  0  0
  7  8  1  0  0  0
  8  9  1  0  0  0
  9 10  2  0  0  0
  9 11  1  0  0  0
 11 12  1  0  0  0
 12 21  1  0  0  0
 12 13  1  0  0  0
 13 14  1  0  0  0
 14 15  1  0  0  0
 15 20  1  0  0  0
 15 16  2  0  0  0
 16 17  1  0  0  0
 17 18  2  0  0  0
 18 19  1  0  0  0
 19 20  2  0  0  0
 20 21  1  0  0  0
M  END
>  <Entry>
38

>  <title>
1-993

>  <rigid docking scores>
-17.1705

>  <InChIKey>
OJKHGXOAGQBKEU-UHFFFAOYSA-N

$$$$
atoms 21 bonds 24
dotmatics
mol io
 21 24  0  0  0  0  0  0  0  0999 V2000
    2.8785   -1.1653    0.0000 O   0  0  0  0  0  0  0  0  0  0  0  0
    2.1594   -0.7570    0.0000 C   0  0  0  0  0  0  0  0  0  0  0  0
    1.4461   -1.1756    0.0000 N   0  0  0  0  0  0  0  0  0  0  0  0
    1.4520   -2.0026    0.0000 C   0  0  0  0  0  0  0  0  0  0  0  0
    1.8706   -2.7158    0.0000 C   0  0  0  0  0  0  0  0  0  0  0  0
    1.0437   -2.7217    0.0000 C   0  0  0  0  0  0  0  0  0  0  0  0
    2.1534    0.0700    0.0000 C   0  0  0  0  0  0  0  0  0  0  0  0
    2.8693    0.4841    0.0000 C   0  0  0  0  0  0  0  0  0  0  0  0
    2.8693    1.3124    0.0000 C   0  0  0  0  0  0  0  0  0  0  0  0
    3.5851    1.7265    0.0000 C   0  0  0  0  0  0  0  0  0  0  0  0
    3.6709    2.5490    0.0000 C   0  0  0  0  0  0  0  0  0  0  0  0
    4.4796    2.7217    0.0000 C   0  0  0  0  0  0  0  0  0  0  0  0
    4.8938    2.0059    0.0000 O   0  0  0  0  0  0  0  0  0  0  0  0
    4.3409    1.3908    0.0000 N   0  0  0  0  0  0  0  0  0  0  0  0
    2.1534    1.7265    0.0000 N   0  0  0  0  0  0  0  0  0  0  0  0
    1.4317    1.3124    0.0000 C   0  0  0  0  0  0  0  0  0  0  0  0
    0.7158    1.7265    0.0000 C   0  0  0  0  0  0  0  0  0  0  0  0
    0.0000    1.3124    0.0000 C   0  0  0  0  0  0  0  0  0  0  0  0
    0.0000    0.4841    0.0000 C   0  0  0  0  0  0  0  0  0  0  0  0
    0.7158    0.0700    0.0000 C   0  0  0  0  0  0  0  0  0  0  0  0
    1.4317    0.4841    0.0000 C   0  0  0  0  0  0  0  0  0  0  0  0
  1  2  2  0  0  0
  2  3  1  0  0  0
  3  4  1  0  0  0
  4  6  1  0  0  0
  4  5  1  0  0  0
  5  6  1  0  0  0
  2  7  1  0  0  0
  7 21  1  0  0  0
  7  8  2  0  0  0
  8  9  1  0  0  0
  9 10  1  0  0  0
 10 14  2  0  0  0
 10 11  1  0  0  0
 11 12  2  0  0  0
 12 13  1  0  0  0
 13 14  1  0  0  0
  9 15  2  0  0  0
 15 16  1  0  0  0
 16 21  1  0  0  0
 16 17  2  0  0  0
 17 18  1  0  0  0
 18 19  2  0  0  0
 19 20  1  0  0  0
 20 21  2  0  0  0
M  END
>  <Entry>
39

>  <title>
10-7354

>  <rigid docking scores>
-17.1944

>  <InChIKey>
BUWNUFWNVAHNPN-UHFFFAOYSA-N

$$$$
atoms 22 bonds 25
dotmatics
mol io
 22 25  0  0  0  0  0  0  0  0999 V2000
    2.8785   -1.2883    0.0000 O   0  0  0  0  0  0  0  0  0  0  0  0
    2.1594   -0.8799    0.0000 C   0  0  0  0  0  0  0  0  0  0  0  0
    1.4461   -1.2985    0.0000 N   0  0  0  0  0  0  0  0  0  0  0  0
    1.4520   -2.1255    0.0000 C   0  0  0  0  0  0  0  0  0  0  0  0
    1.8706   -2.8388    0.0000 C   0  0  0  0  0  0  0  0  0  0  0  0
    1.0437   -2.8447    0.0000 C   0  0  0  0  0  0  0  0  0  0  0  0
    2.1534   -0.0530    0.0000 C   0  0  0  0  0  0  0  0  0  0  0  0
    2.8693    0.3612    0.0000 C   0  0  0  0  0  0  0  0  0  0  0  0
    2.8693    1.1894    0.0000 C   0  0  0  0  0  0  0  0  0  0  0  0
    3.5851    1.6035    0.0000 C   0  0  0  0  0  0  0  0  0  0  0  0
    3.5844    2.4305    0.0000 C   0  0  0  0  0  0  0  0  0  0  0  0
    4.3003    2.8447    0.0000 N   0  0  0  0  0  0  0  0  0  0  0  0
    5.0168    2.4318    0.0000 C   0  0  0  0  0  0  0  0  0  0  0  0
    5.0175    1.6048    0.0000 C   0  0  0  0  0  0  0  0  0  0  0  0
    4.3017    1.1907    0.0000 N   0  0  0  0  0  0  0  0  0  0  0  0
    2.1534    1.6035    0.0000 N   0  0  0  0  0  0  0  0  0  0  0  0
    1.4317    1.1894    0.0000 C   0  0  0  0  0  0  0  0  0  0  0  0
    0.7158    1.6035    0.0000 C   0  0  0  0  0  0  0  0  0  0  0  0
    0.0000    1.1894    0.0000 C   0  0  0  0  0  0  0  0  0  0  0  0
    0.0000    0.3612    0.0000 C   0  0  0  0  0  0  0  0  0  0  0  0
    0.7158   -0.0530    0.0000 C   0  0  0  0  0  0  0  0  0  0  0  0
    1.4317    0.3612    0.0000 C   0  0  0  0  0  0  0  0  0  0  0  0
  1  2  2  0  0  0
  2  3  1  0  0  0
  3  4  1  0  0  0
  4  6  1  0  0  0
  4  5  1  0  0  0
  5  6  1  0  0  0
  2  7  1  0  0  0
  7 22  1  0  0  0
  7  8  2  0  0  0
  8  9  1  0  0  0
  9 10  1  0  0  0
 10 15  1  0  0  0
 10 11  2  0  0  0
 11 12  1  0  0  0
 12 13  2  0  0  0
 13 14  1  0  0  0
 14 15  2  0  0  0
  9 16  2  0  0  0
 16 17  1  0  0  0
 17 22  1  0  0  0
 17 18  2  0  0  0
 18 19  1  0  0  0
 19 20  2  0  0  0
 20 21  1  0  0  0
 21 22  2  0  0  0
M  END
>  <Entry>
40

>  <title>
10-7828

>  <rigid docking scores>
-16.8934

>  <InChIKey>
KOHJUDBEPYKCPD-UHFFFAOYSA-N

$$$$
atoms 23 bonds 25
dotmatics
mol io
 23 25  0  0  0  0  0  0  0  0999 V2000
    0.0000   -0.1490    0.0000 C   0  0  0  0  0  0  0  0  0  0  0  0
    0.7158   -0.5631    0.0000 C   0  0  0  0  0  0  0  0  0  0  0  0
    0.7151   -1.3901    0.0000 O   0  0  0  0  0  0  0  0  0  0  0  0
    1.4324   -0.1502    0.0000 C   0  0  0  0  0  0  0  0  0  0  0  0
    1.4331    0.6768    0.0000 C   0  0  0  0  0  0  0  0  0  0  0  0
    2.1497    1.0896    0.0000 C   0  0  0  0  0  0  0  0  0  0  0  0
    2.8655    0.6755    0.0000 C   0  0  0  0  0  0  0  0  0  0  0  0
    3.5821    1.0884    0.0000 N   0  0  0  0  0  0  0  0  0  0  0  0
    4.2979    0.6743    0.0000 S   0  0  0  0  0  0  0  0  0  0  0  0
    4.7121    1.3901    0.0000 O   0  0  0  0  0  0  0  0  0  0  0  0
    3.8838   -0.0416    0.0000 O   0  0  0  0  0  0  0  0  0  0  0  0
    5.0138    0.2601    0.0000 C   0  0  0  0  0  0  0  0  0  0  0  0
    5.0138   -0.5681    0.0000 C   0  0  0  0  0  0  0  0  0  0  0  0
    5.7296   -0.9822    0.0000 C   0  0  0  0  0  0  0  0  0  0  0  0
    6.4455   -0.5681    0.0000 C   0  0  0  0  0  0  0  0  0  0  0  0
    6.4455    0.2601    0.0000 C   0  0  0  0  0  0  0  0  0  0  0  0
    5.7296    0.6743    0.0000 C   0  0  0  0  0  0  0  0  0  0  0  0
    7.1672    0.6743    0.0000 C   0  0  0  0  0  0  0  0  0  0  0  0
    7.8831    0.2601    0.0000 N   0  0  0  0  0  0  0  0  0  0  0  0
    7.8831   -0.5681    0.0000 C   0  0  0  0  0  0  0  0  0  0  0  0
    7.1672   -0.9822    0.0000 C   0  0  0  0  0  0  0  0  0  0  0  0
    2.8648   -0.1515    0.0000 C   0  0  0  0  0  0  0  0  0  0  0  0
    2.1482   -0.5644    0.0000 C   0  0  0  0  0  0  0  0  0  0  0  0
  1  2  1  0  0  0
  2  3  2  0  0  0
  2  4  1  0  0  0
  4 23  1  0  0  0
  4  5  2  0  0  0
  5  6  1  0  0  0
  6  7  2  0  0  0
  7  8  1  0  0  0
  8  9  1  0  0  0
  9 10  2  0  0  0
  9 11  2  0  0  0
  9 12  1  0  0  0
 12 17  1  0  0  0
 12 13  2  0  0  0
 13 14  1  0  0  0
 14 15  2  0  0  0
 15 21  1  0  0  0
 15 16  1  0  0  0
 16 17  2  0  0  0
 16 18  1  0  0  0
 18 19  1  0  0  0
 19 20  1  0  0  0
 20 21  1  0  0  0
  7 22  1  0  0  0
 22 23  2  0  0  0
M  END
>  <Entry>
41

>  <title>
11-502

>  <rigid docking scores>
-16.0365

>  <InChIKey>
DIBXWDRVKZGEBC-UHFFFAOYSA-N

$$$$
atoms 23 bonds 25
dotmatics
mol io
 23 25  0  0  0  0  0  0  0  0999 V2000
    3.5844   -2.8964    0.0000 C   0  0  0  0  0  0  0  0  0  0  0  0
    3.5851   -2.0694    0.0000 C   0  0  0  0  0  0  0  0  0  0  0  0
    2.8693   -1.6552    0.0000 N   0  0  0  0  0  0  0  0  0  0  0  0
    2.8693   -0.8270    0.0000 C   0  0  0  0  0  0  0  0  0  0  0  0
    3.5851   -0.4129    0.0000 C   0  0  0  0  0  0  0  0  0  0  0  0
    3.5844    0.4141    0.0000 N   0  0  0  0  0  0  0  0  0  0  0  0
    2.8678    0.8270    0.0000 C   0  0  0  0  0  0  0  0  0  0  0  0
    2.8671    1.6540    0.0000 C   0  0  0  0  0  0  0  0  0  0  0  0
    3.5830    2.0681    0.0000 C   0  0  0  0  0  0  0  0  0  0  0  0
    4.2995    1.6552    0.0000 C   0  0  0  0  0  0  0  0  0  0  0  0
    5.0154    2.0694    0.0000 N   0  0  0  0  0  0  0  0  0  0  0  0
    5.7319    1.6565    0.0000 C   0  0  0  0  0  0  0  0  0  0  0  0
    5.0146    2.8964    0.0000 C   0  0  0  0  0  0  0  0  0  0  0  0
    4.3003    0.8282    0.0000 C   0  0  0  0  0  0  0  0  0  0  0  0
    2.1534   -0.4129    0.0000 N   0  0  0  0  0  0  0  0  0  0  0  0
    1.4317   -0.8270    0.0000 C   0  0  0  0  0  0  0  0  0  0  0  0
    0.7158   -0.4129    0.0000 C   0  0  0  0  0  0  0  0  0  0  0  0
    0.0000   -0.8270    0.0000 C   0  0  0  0  0  0  0  0  0  0  0  0
    0.0000   -1.6552    0.0000 C   0  0  0  0  0  0  0  0  0  0  0  0
    0.7158   -2.0694    0.0000 C   0  0  0  0  0  0  0  0  0  0  0  0
    1.4317   -1.6552    0.0000 C   0  0  0  0  0  0  0  0  0  0  0  0
    2.1534   -2.0694    0.0000 C   0  0  0  0  0  0  0  0  0  0  0  0
    2.1594   -2.8964    0.0000 O   0  0  0  0  0  0  0  0  0  0  0  0
  1  2  1  0  0  0
  2  3  1  0  0  0
  3 22  1  0  0  0
  3  4  1  0  0  0
  4  5  1  0  0  0
  5  6  1  0  0  0
  6 14  1  0  0  0
  6  7  1  0  0  0
  7  8  1  0  0  0
  8  9  1  0  0  0
  9 10  1  0  0  0
 10 11  1  0  0  0
 11 12  1  0  0  0
 11 13  1  0  0  0
 10 14  1  0  0  0
  4 15  2  0  0  0
 15 16  1  0  0  0
 16 21  1  0  0  0
 16 17  2  0  0  0
 17 18  1  0  0  0
 18 19  2  0  0  0
 19 20  1  0  0  0
 20 21  2  0  0  0
 21 22  1  0  0  0
 22 23  2  0  0  0
M  END
>  <Entry>
42

>  <title>
11-813

>  <rigid docking scores>
-15.497

>  <InChIKey>
MSHWCMCOWNFNGU-UHFFFAOYSA-N

$$$$
atoms 18 bonds 20
dotmatics
mol io
 18 20  0  0  0  0  0  0  0  0999 V2000
   -3.3446    0.7162    0.0000 C   0  0  0  0  0  0  0  0  0  0  0  0
   -2.9311    1.4324    0.0000 C   0  0  0  0  0  0  0  0  0  0  0  0
   -2.1041    1.4324    0.0000 N   0  0  0  0  0  0  0  0  0  0  0  0
   -1.6906    0.7162    0.0000 C   0  0  0  0  0  0  0  0  0  0  0  0
   -0.8636    0.7162    0.0000 C   0  0  0  0  0  0  0  0  0  0  0  0
   -0.3775    1.3853    0.0000 N   0  0  0  0  0  0  0  0  0  0  0  0
    0.4090    1.1297    0.0000 C   0  0  0  0  0  0  0  0  0  0  0  0
    1.0781    1.6158    0.0000 C   0  0  0  0  0  0  0  0  0  0  0  0
    1.8336    1.2794    0.0000 N   0  0  0  0  0  0  0  0  0  0  0  0
    2.5026    1.7655    0.0000 C   0  0  0  0  0  0  0  0  0  0  0  0
    3.2581    1.4292    0.0000 C   0  0  0  0  0  0  0  0  0  0  0  0
    3.3446    0.6067    0.0000 C   0  0  0  0  0  0  0  0  0  0  0  0
    2.6755    0.1206    0.0000 C   0  0  0  0  0  0  0  0  0  0  0  0
    1.9200    0.4570    0.0000 C   0  0  0  0  0  0  0  0  0  0  0  0
    0.4090    0.3027    0.0000 C   0  0  0  0  0  0  0  0  0  0  0  0
   -0.3775    0.0471    0.0000 S   0  0  0  0  0  0  0  0  0  0  0  0
   -2.1041    0.0000    0.0000 N   0  0  0  0  0  0  0  0  0  0  0  0
   -2.9311    0.0000    0.0000 C   0  0  0  0  0  0  0  0  0  0  0  0
  1 18  1  0  0  0
  1  2  2  0  0  0
  2  3  1  0  0  0
  3  4  2  0  0  0
  4  5  1  0  0  0
  5 16  1  0  0  0
  5  6  2  0  0  0
  6  7  1  0  0  0
  7  8  1  0  0  0
  8  9  1  0  0  0
  9 14  1  0  0  0
  9 10  1  0  0  0
 10 11  1  0  0  0
 11 12  1  0  0  0
 12 13  1  0  0  0
 13 14  1  0  0  0
  7 15  2  0  0  0
 15 16  1  0  0  0
  4 17  1  0  0  0
 17 18  2  0  0  0
M  END
>  <Entry>
43

>  <title>
11-1004

>  <rigid docking scores>
-15.7308

>  <InChIKey>
LXCBSXIVJABIDC-UHFFFAOYSA-N

$$$$
atoms 21 bonds 23
dotmatics
mol io
 21 23  0  0  0  0  0  0  0  0999 V2000
   -3.9216    1.4324    0.0000 C   0  0  0  0  0  0  0  0  0  0  0  0
   -3.5081    0.7162    0.0000 C   0  0  0  0  0  0  0  0  0  0  0  0
   -3.9216    0.0000    0.0000 O   0  0  0  0  0  0  0  0  0  0  0  0
   -2.6811    0.7162    0.0000 N   0  0  0  0  0  0  0  0  0  0  0  0
   -2.2676    1.4324    0.0000 C   0  0  0  0  0  0  0  0  0  0  0  0
   -1.4406    1.4324    0.0000 C   0  0  0  0  0  0  0  0  0  0  0  0
   -1.0271    0.7162    0.0000 C   0  0  0  0  0  0  0  0  0  0  0  0
   -0.2001    0.7162    0.0000 C   0  0  0  0  0  0  0  0  0  0  0  0
    0.2860    1.3853    0.0000 N   0  0  0  0  0  0  0  0  0  0  0  0
    1.0725    1.1297    0.0000 C   0  0  0  0  0  0  0  0  0  0  0  0
    1.7416    1.6158    0.0000 C   0  0  0  0  0  0  0  0  0  0  0  0
    1.6551    2.4383    0.0000 C   0  0  0  0  0  0  0  0  0  0  0  0
    2.3242    2.9244    0.0000 C   0  0  0  0  0  0  0  0  0  0  0  0
    3.0797    2.5880    0.0000 C   0  0  0  0  0  0  0  0  0  0  0  0
    3.1661    1.7655    0.0000 C   0  0  0  0  0  0  0  0  0  0  0  0
    3.9216    1.4292    0.0000 F   0  0  0  0  0  0  0  0  0  0  0  0
    2.4971    1.2794    0.0000 C   0  0  0  0  0  0  0  0  0  0  0  0
    1.0725    0.3027    0.0000 N   0  0  0  0  0  0  0  0  0  0  0  0
    0.2860    0.0471    0.0000 O   0  0  0  0  0  0  0  0  0  0  0  0
   -1.4406    0.0000    0.0000 C   0  0  0  0  0  0  0  0  0  0  0  0
   -2.2676    0.0000    0.0000 C   0  0  0  0  0  0  0  0  0  0  0  0
  1  2  1  0  0  0
  2  3  2  0  0  0
  2  4  1  0  0  0
  4 21  1  0  0  0
  4  5  1  0  0  0
  5  6  1  0  0  0
  6  7  1  0  0  0
  7  8  1  0  0  0
  8 19  1  0  0  0
  8  9  2  0  0  0
  9 10  1  0  0  0
 10 11  1  0  0  0
 11 17  1  0  0  0
 11 12  2  0  0  0
 12 13  1  0  0  0
 13 14  2  0  0  0
 14 15  1  0  0  0
 15 16  1  0  0  0
 15 17  2  0  0  0
 10 18  2  0  0  0
 18 19  1  0  0  0
  7 20  1  0  0  0
 20 21  1  0  0  0
M  END
>  <Entry>
44

>  <title>
11-1057

>  <rigid docking scores>
-16.2917

>  <InChIKey>
ROPZXOGECDFUJS-UHFFFAOYSA-N

$$$$
atoms 20 bonds 22
dotmatics
mol io
 20 22  0  0  0  0  0  0  0  0999 V2000
    5.0359   -2.0534    0.0000 C   0  0  0  0  0  0  0  0  0  0  0  0
    4.3168   -1.6450    0.0000 N   0  0  0  0  0  0  0  0  0  0  0  0
    3.6035   -2.0636    0.0000 C   0  0  0  0  0  0  0  0  0  0  0  0
    2.8844   -1.6552    0.0000 C   0  0  0  0  0  0  0  0  0  0  0  0
    2.8785   -0.8282    0.0000 N   0  0  0  0  0  0  0  0  0  0  0  0
    2.1594   -0.4199    0.0000 C   0  0  0  0  0  0  0  0  0  0  0  0
    1.4461   -0.8385    0.0000 O   0  0  0  0  0  0  0  0  0  0  0  0
    2.1534    0.4071    0.0000 C   0  0  0  0  0  0  0  0  0  0  0  0
    2.8693    0.8212    0.0000 C   0  0  0  0  0  0  0  0  0  0  0  0
    2.8693    1.6495    0.0000 C   0  0  0  0  0  0  0  0  0  0  0  0
    3.5851    2.0636    0.0000 O   0  0  0  0  0  0  0  0  0  0  0  0
    2.1534    2.0636    0.0000 N   0  0  0  0  0  0  0  0  0  0  0  0
    1.4317    1.6495    0.0000 C   0  0  0  0  0  0  0  0  0  0  0  0
    0.7158    2.0636    0.0000 C   0  0  0  0  0  0  0  0  0  0  0  0
    0.0000    1.6495    0.0000 C   0  0  0  0  0  0  0  0  0  0  0  0
    0.0000    0.8212    0.0000 C   0  0  0  0  0  0  0  0  0  0  0  0
    0.7158    0.4071    0.0000 C   0  0  0  0  0  0  0  0  0  0  0  0
    1.4317    0.8212    0.0000 C   0  0  0  0  0  0  0  0  0  0  0  0
    3.5917   -0.4096    0.0000 C   0  0  0  0  0  0  0  0  0  0  0  0
    4.3109   -0.8180    0.0000 C   0  0  0  0  0  0  0  0  0  0  0  0
  1  2  1  0  0  0
  2 20  1  0  0  0
  2  3  1  0  0  0
  3  4  1  0  0  0
  4  5  1  0  0  0
  5  6  1  0  0  0
  6  7  2  0  0  0
  6  8  1  0  0  0
  8 18  1  0  0  0
  8  9  2  0  0  0
  9 10  1  0  0  0
 10 11  2  0  0  0
 10 12  1  0  0  0
 12 13  1  0  0  0
 13 18  1  0  0  0
 13 14  2  0  0  0
 14 15  1  0  0  0
 15 16  2  0  0  0
 16 17  1  0  0  0
 17 18  2  0  0  0
  5 19  1  0  0  0
 19 20  1  0  0  0
M  END
>  <Entry>
45

>  <title>
11-1108

>  <rigid docking scores>
-16.9981

>  <InChIKey>
GGRTZLQMRSFWQE-UHFFFAOYSA-N

>  <Pubchem>
60413946

$$$$
atoms 22 bonds 24
dotmatics
mol io
 22 24  0  0  0  0  0  0  0  0999 V2000
    0.0000    1.6521    0.0000 C   0  0  0  0  0  0  0  0  0  0  0  0
    0.0007    0.8251    0.0000 C   0  0  0  0  0  0  0  0  0  0  0  0
    0.7173    0.4123    0.0000 N   0  0  0  0  0  0  0  0  0  0  0  0
    1.4331    0.8264    0.0000 C   0  0  0  0  0  0  0  0  0  0  0  0
    2.1497    0.4135    0.0000 C   0  0  0  0  0  0  0  0  0  0  0  0
    2.1504   -0.4135    0.0000 C   0  0  0  0  0  0  0  0  0  0  0  0
    2.8670   -0.8264    0.0000 C   0  0  0  0  0  0  0  0  0  0  0  0
    3.5828   -0.4123    0.0000 N   0  0  0  0  0  0  0  0  0  0  0  0
    4.2994   -0.8251    0.0000 C   0  0  0  0  0  0  0  0  0  0  0  0
    4.3001   -1.6521    0.0000 O   0  0  0  0  0  0  0  0  0  0  0  0
    5.0152   -0.4110    0.0000 C   0  0  0  0  0  0  0  0  0  0  0  0
    5.0152    0.4172    0.0000 C   0  0  0  0  0  0  0  0  0  0  0  0
    5.7311    0.8314    0.0000 C   0  0  0  0  0  0  0  0  0  0  0  0
    6.4469    0.4172    0.0000 C   0  0  0  0  0  0  0  0  0  0  0  0
    7.2337    0.6716    0.0000 N   0  0  0  0  0  0  0  0  0  0  0  0
    7.7248    0.0031    0.0000 N   0  0  0  0  0  0  0  0  0  0  0  0
    7.2337   -0.6654    0.0000 C   0  0  0  0  0  0  0  0  0  0  0  0
    7.4862   -1.4529    0.0000 C   0  0  0  0  0  0  0  0  0  0  0  0
    6.4469   -0.4110    0.0000 C   0  0  0  0  0  0  0  0  0  0  0  0
    5.7311   -0.8251    0.0000 C   0  0  0  0  0  0  0  0  0  0  0  0
    1.4346   -0.8276    0.0000 C   0  0  0  0  0  0  0  0  0  0  0  0
    0.7180   -0.4147    0.0000 C   0  0  0  0  0  0  0  0  0  0  0  0
  1  2  1  0  0  0
  2  3  1  0  0  0
  3 22  1  0  0  0
  3  4  1  0  0  0
  4  5  1  0  0  0
  5  6  1  0  0  0
  6  7  1  0  0  0
  7  8  1  0  0  0
  8  9  1  0  0  0
  9 10  2  0  0  0
  9 11  1  0  0  0
 11 20  2  0  0  0
 11 12  1  0  0  0
 12 13  2  0  0  0
 13 14  1  0  0  0
 14 19  1  0  0  0
 14 15  2  0  0  0
 15 16  1  0  0  0
 16 17  1  0  0  0
 17 18  1  0  0  0
 17 19  2  0  0  0
 19 20  1  0  0  0
  6 21  1  0  0  0
 21 22  1  0  0  0
M  END
>  <Entry>
46

>  <title>
11-1498

>  <rigid docking scores>
-15.709

>  <InChIKey>
FWKDPRWLRZVSJG-UHFFFAOYSA-N

$$$$
atoms 20 bonds 22
dotmatics
mol io
 20 22  0  0  0  0  0  0  0  0999 V2000
   -3.6078    3.5595    0.0000 C   0  0  0  0  0  0  0  0  0  0  0  0
   -3.1943    2.8433    0.0000 C   0  0  0  0  0  0  0  0  0  0  0  0
   -2.3673    2.8433    0.0000 N   0  0  0  0  0  0  0  0  0  0  0  0
   -1.9538    3.5595    0.0000 C   0  0  0  0  0  0  0  0  0  0  0  0
   -1.1268    3.5595    0.0000 C   0  0  0  0  0  0  0  0  0  0  0  0
   -0.7133    2.8433    0.0000 N   0  0  0  0  0  0  0  0  0  0  0  0
    0.1137    2.8433    0.0000 C   0  0  0  0  0  0  0  0  0  0  0  0
    0.5272    3.5595    0.0000 O   0  0  0  0  0  0  0  0  0  0  0  0
    0.5272    2.1271    0.0000 C   0  0  0  0  0  0  0  0  0  0  0  0
    1.3496    2.0407    0.0000 C   0  0  0  0  0  0  0  0  0  0  0  0
    1.5216    1.2317    0.0000 C   0  0  0  0  0  0  0  0  0  0  0  0
    2.2771    0.8954    0.0000 C   0  0  0  0  0  0  0  0  0  0  0  0
    2.9933    1.3089    0.0000 C   0  0  0  0  0  0  0  0  0  0  0  0
    3.6078    0.7555    0.0000 C   0  0  0  0  0  0  0  0  0  0  0  0
    3.2715   -0.0000    0.0000 C   0  0  0  0  0  0  0  0  0  0  0  0
    2.4490    0.0864    0.0000 O   0  0  0  0  0  0  0  0  0  0  0  0
    0.8054    0.8182    0.0000 O   0  0  0  0  0  0  0  0  0  0  0  0
    0.1908    1.3716    0.0000 N   0  0  0  0  0  0  0  0  0  0  0  0
   -1.1268    2.1271    0.0000 C   0  0  0  0  0  0  0  0  0  0  0  0
   -1.9538    2.1271    0.0000 C   0  0  0  0  0  0  0  0  0  0  0  0
  1  2  1  0  0  0
  2  3  1  0  0  0
  3 20  1  0  0  0
  3  4  1  0  0  0
  4  5  1  0  0  0
  5  6  1  0  0  0
  6  7  1  0  0  0
  7  8  2  0  0  0
  7  9  1  0  0  0
  9 18  2  0  0  0
  9 10  1  0  0  0
 10 11  2  0  0  0
 11 12  1  0  0  0
 12 16  1  0  0  0
 12 13  2  0  0  0
 13 14  1  0  0  0
 14 15  2  0  0  0
 15 16  1  0  0  0
 11 17  1  0  0  0
 17 18  1  0  0  0
  6 19  1  0  0  0
 19 20  1  0  0  0
M  END
>  <Entry>
47

>  <title>
11-1512

>  <rigid docking scores>
-16.5583

>  <InChIKey>
KJBFORUOSIRDTF-UHFFFAOYSA-N

>  <ZINC>
ZINC000036148527

>  <Pubchem>
71683966

>  <Mcule>
MCULE-8120796896

$$$$
atoms 23 bonds 25
dotmatics
mol io
 23 25  0  0  0  0  0  0  0  0999 V2000
    6.6210   -0.7180    0.0000 C   0  0  0  0  0  0  0  0  0  0  0  0
    6.2081   -0.0014    0.0000 C   0  0  0  0  0  0  0  0  0  0  0  0
    5.3811   -0.0007    0.0000 C   0  0  0  0  0  0  0  0  0  0  0  0
    4.9682    0.7158    0.0000 N   0  0  0  0  0  0  0  0  0  0  0  0
    4.1412    0.7166    0.0000 C   0  0  0  0  0  0  0  0  0  0  0  0
    3.7271    0.0007    0.0000 C   0  0  0  0  0  0  0  0  0  0  0  0
    4.1412   -0.7151    0.0000 C   0  0  0  0  0  0  0  0  0  0  0  0
    3.7271   -1.4310    0.0000 C   0  0  0  0  0  0  0  0  0  0  0  0
    4.1412   -2.1468    0.0000 O   0  0  0  0  0  0  0  0  0  0  0  0
    2.8989   -1.4310    0.0000 N   0  0  0  0  0  0  0  0  0  0  0  0
    2.4847   -2.1468    0.0000 C   0  0  0  0  0  0  0  0  0  0  0  0
    2.4847   -0.7151    0.0000 C   0  0  0  0  0  0  0  0  0  0  0  0
    1.6565   -0.7151    0.0000 C   0  0  0  0  0  0  0  0  0  0  0  0
    1.2424   -1.4310    0.0000 C   0  0  0  0  0  0  0  0  0  0  0  0
    0.4141   -1.4310    0.0000 C   0  0  0  0  0  0  0  0  0  0  0  0
    0.0000   -0.7151    0.0000 C   0  0  0  0  0  0  0  0  0  0  0  0
    0.4141    0.0007    0.0000 N   0  0  0  0  0  0  0  0  0  0  0  0
    1.2424    0.0007    0.0000 C   0  0  0  0  0  0  0  0  0  0  0  0
    2.8989    0.0007    0.0000 N   0  0  0  0  0  0  0  0  0  0  0  0
    5.3824    1.4317    0.0000 C   0  0  0  0  0  0  0  0  0  0  0  0
    6.2094    1.4310    0.0000 C   0  0  0  0  0  0  0  0  0  0  0  0
    6.6235    2.1468    0.0000 C   0  0  0  0  0  0  0  0  0  0  0  0
    6.6222    0.7144    0.0000 O   0  0  0  0  0  0  0  0  0  0  0  0
  1  2  1  0  0  0
  2 23  1  0  0  0
  2  3  1  0  0  0
  3  4  1  0  0  0
  4  5  1  0  0  0
  5  6  1  0  0  0
  6 19  1  0  0  0
  6  7  2  0  0  0
  7  8  1  0  0  0
  8  9  2  0  0  0
  8 10  1  0  0  0
 10 11  1  0  0  0
 10 12  1  0  0  0
 12 13  1  0  0  0
 13 18  1  0  0  0
 13 14  2  0  0  0
 14 15  1  0  0  0
 15 16  2  0  0  0
 16 17  1  0  0  0
 17 18  2  0  0  0
 12 19  2  0  0  0
  4 20  1  0  0  0
 20 21  1  0  0  0
 21 22  1  0  0  0
 21 23  1  0  0  0
M  END
>  <Entry>
48

>  <title>
11-2470

>  <rigid docking scores>
-16.255

>  <InChIKey>
QDJCXJLZMOPYDX-UHFFFAOYSA-N

$$$$
atoms 21 bonds 23
dotmatics
mol io
 21 23  0  0  0  0  0  0  0  0999 V2000
    7.4505    1.7882    0.0000 C   0  0  0  0  0  0  0  0  0  0  0  0
    6.6235    1.7889    0.0000 O   0  0  0  0  0  0  0  0  0  0  0  0
    6.2094    1.0730    0.0000 C   0  0  0  0  0  0  0  0  0  0  0  0
    6.6222    0.3565    0.0000 C   0  0  0  0  0  0  0  0  0  0  0  0
    6.2081   -0.3594    0.0000 C   0  0  0  0  0  0  0  0  0  0  0  0
    5.3811   -0.3586    0.0000 C   0  0  0  0  0  0  0  0  0  0  0  0
    4.9682    0.3579    0.0000 C   0  0  0  0  0  0  0  0  0  0  0  0
    4.1412    0.3586    0.0000 N   0  0  0  0  0  0  0  0  0  0  0  0
    3.7271   -0.3572    0.0000 C   0  0  0  0  0  0  0  0  0  0  0  0
    4.1412   -1.0730    0.0000 N   0  0  0  0  0  0  0  0  0  0  0  0
    3.7271   -1.7889    0.0000 C   0  0  0  0  0  0  0  0  0  0  0  0
    2.8989   -1.7889    0.0000 C   0  0  0  0  0  0  0  0  0  0  0  0
    2.4847   -1.0730    0.0000 C   0  0  0  0  0  0  0  0  0  0  0  0
    1.6565   -1.0730    0.0000 C   0  0  0  0  0  0  0  0  0  0  0  0
    1.2424   -1.7889    0.0000 C   0  0  0  0  0  0  0  0  0  0  0  0
    0.4141   -1.7889    0.0000 C   0  0  0  0  0  0  0  0  0  0  0  0
    0.0000   -1.0730    0.0000 N   0  0  0  0  0  0  0  0  0  0  0  0
    0.4141   -0.3572    0.0000 C   0  0  0  0  0  0  0  0  0  0  0  0
    1.2424   -0.3572    0.0000 C   0  0  0  0  0  0  0  0  0  0  0  0
    2.8989   -0.3572    0.0000 N   0  0  0  0  0  0  0  0  0  0  0  0
    5.3824    1.0738    0.0000 C   0  0  0  0  0  0  0  0  0  0  0  0
  1  2  1  0  0  0
  2  3  1  0  0  0
  3 21  1  0  0  0
  3  4  2  0  0  0
  4  5  1  0  0  0
  5  6  2  0  0  0
  6  7  1  0  0  0
  7  8  1  0  0  0
  8  9  1  0  0  0
  9 20  1  0  0  0
  9 10  2  0  0  0
 10 11  1  0  0  0
 11 12  2  0  0  0
 12 13  1  0  0  0
 13 14  1  0  0  0
 14 19  1  0  0  0
 14 15  2  0  0  0
 15 16  1  0  0  0
 16 17  2  0  0  0
 17 18  1  0  0  0
 18 19  2  0  0  0
 13 20  2  0  0  0
  7 21  2  0  0  0
M  END
>  <Entry>
49

>  <title>
11-4586

>  <rigid docking scores>
-19.9756

>  <InChIKey>
CGYIYSZHAZAHBP-UHFFFAOYSA-N

>  <ChEMBL>
CHEMBL93726

>  <ZINC>
ZINC000026653984

>  <SureChEMBL Patents>
SCHEMBL7464195

>  <Pubchem>
14347071

$$$$
atoms 21 bonds 23
dotmatics
mol io
 21 23  0  0  0  0  0  0  0  0999 V2000
    5.1792    2.1592    0.0000 C   0  0  0  0  0  0  0  0  0  0  0  0
    4.4630    1.7457    0.0000 O   0  0  0  0  0  0  0  0  0  0  0  0
    4.4630    0.9187    0.0000 C   0  0  0  0  0  0  0  0  0  0  0  0
    5.1792    0.5052    0.0000 C   0  0  0  0  0  0  0  0  0  0  0  0
    5.1792   -0.3218    0.0000 C   0  0  0  0  0  0  0  0  0  0  0  0
    4.4630   -0.7353    0.0000 C   0  0  0  0  0  0  0  0  0  0  0  0
    3.7468   -0.3218    0.0000 C   0  0  0  0  0  0  0  0  0  0  0  0
    3.7468    0.5052    0.0000 C   0  0  0  0  0  0  0  0  0  0  0  0
    2.9770   -0.6239    0.0000 N   0  0  0  0  0  0  0  0  0  0  0  0
    2.3708   -0.0614    0.0000 C   0  0  0  0  0  0  0  0  0  0  0  0
    1.5805   -0.3051    0.0000 C   0  0  0  0  0  0  0  0  0  0  0  0
    1.3965   -1.1114    0.0000 C   0  0  0  0  0  0  0  0  0  0  0  0
    0.6062   -1.3552    0.0000 C   0  0  0  0  0  0  0  0  0  0  0  0
    0.0000   -0.7927    0.0000 C   0  0  0  0  0  0  0  0  0  0  0  0
    0.1840    0.0136    0.0000 C   0  0  0  0  0  0  0  0  0  0  0  0
    0.9743    0.2574    0.0000 N   0  0  0  0  0  0  0  0  0  0  0  0
    2.7332   -1.4141    0.0000 C   0  0  0  0  0  0  0  0  0  0  0  0
    3.1991   -2.0974    0.0000 C   0  0  0  0  0  0  0  0  0  0  0  0
    4.0238   -2.1592    0.0000 C   0  0  0  0  0  0  0  0  0  0  0  0
    4.5863   -1.5530    0.0000 N   0  0  0  0  0  0  0  0  0  0  0  0
    5.3766   -1.7968    0.0000 C   0  0  0  0  0  0  0  0  0  0  0  0
  1  2  1  0  0  0
  2  3  1  0  0  0
  3  8  1  0  0  0
  3  4  2  0  0  0
  4  5  1  0  0  0
  5  6  2  0  0  0
  6 20  1  0  0  0
  6  7  1  0  0  0
  7  8  2  0  0  0
  7  9  1  0  0  0
  9 10  1  0  0  0
 10 11  1  0  0  0
 11 16  1  0  0  0
 11 12  2  0  0  0
 12 13  1  0  0  0
 13 14  2  0  0  0
 14 15  1  0  0  0
 15 16  2  0  0  0
  9 17  1  0  0  0
 17 18  1  0  0  0
 18 19  1  0  0  0
 19 20  1  0  0  0
 20 21  1  0  0  0
M  END
>  <Entry>
50

>  <title>
11-5330

>  <rigid docking scores>
-15.4839

>  <InChIKey>
IFFSRGWNJVSZPY-UHFFFAOYSA-N

$$$$
atoms 22 bonds 24
dotmatics
mol io
 22 24  0  0  0  0  0  0  0  0999 V2000
    6.7519    0.9453    0.0000 C   0  0  0  0  0  0  0  0  0  0  0  0
    5.9249    0.9453    0.0000 S   0  0  0  0  0  0  0  0  0  0  0  0
    5.9249    1.7723    0.0000 O   0  0  0  0  0  0  0  0  0  0  0  0
    5.0979    0.9453    0.0000 O   0  0  0  0  0  0  0  0  0  0  0  0
    5.9249    0.1183    0.0000 C   0  0  0  0  0  0  0  0  0  0  0  0
    6.6411   -0.2952    0.0000 C   0  0  0  0  0  0  0  0  0  0  0  0
    6.6411   -1.1222    0.0000 C   0  0  0  0  0  0  0  0  0  0  0  0
    5.9249   -1.5357    0.0000 C   0  0  0  0  0  0  0  0  0  0  0  0
    5.2087   -1.1222    0.0000 C   0  0  0  0  0  0  0  0  0  0  0  0
    4.4925   -1.5357    0.0000 N   0  0  0  0  0  0  0  0  0  0  0  0
    3.7763   -1.1222    0.0000 C   0  0  0  0  0  0  0  0  0  0  0  0
    3.0208   -1.4585    0.0000 N   0  0  0  0  0  0  0  0  0  0  0  0
    2.4674   -0.8439    0.0000 C   0  0  0  0  0  0  0  0  0  0  0  0
    1.6449   -0.9304    0.0000 C   0  0  0  0  0  0  0  0  0  0  0  0
    1.3086   -1.6859    0.0000 C   0  0  0  0  0  0  0  0  0  0  0  0
    0.4861   -1.7723    0.0000 C   0  0  0  0  0  0  0  0  0  0  0  0
    0.0000   -1.1033    0.0000 N   0  0  0  0  0  0  0  0  0  0  0  0
    0.3364   -0.3478    0.0000 C   0  0  0  0  0  0  0  0  0  0  0  0
    1.1588   -0.2613    0.0000 C   0  0  0  0  0  0  0  0  0  0  0  0
    2.8809   -0.1277    0.0000 C   0  0  0  0  0  0  0  0  0  0  0  0
    3.6898   -0.2997    0.0000 S   0  0  0  0  0  0  0  0  0  0  0  0
    5.2087   -0.2952    0.0000 C   0  0  0  0  0  0  0  0  0  0  0  0
  1  2  1  0  0  0
  2  3  2  0  0  0
  2  4  2  0  0  0
  2  5  1  0  0  0
  5 22  1  0  0  0
  5  6  2  0  0  0
  6  7  1  0  0  0
  7  8  2  0  0  0
  8  9  1  0  0  0
  9 10  1  0  0  0
 10 11  1  0  0  0
 11 21  1  0  0  0
 11 12  2  0  0  0
 12 13  1  0  0  0
 13 14  1  0  0  0
 14 19  1  0  0  0
 14 15  2  0  0  0
 15 16  1  0  0  0
 16 17  2  0  0  0
 17 18  1  0  0  0
 18 19  2  0  0  0
 13 20  2  0  0  0
 20 21  1  0  0  0
  9 22  2  0  0  0
M  END
>  <Entry>
51

>  <title>
11-5586

>  <rigid docking scores>
-20.3162

>  <InChIKey>
RDSBRGLMKHELIQ-UHFFFAOYSA-N

$$$$
atoms 23 bonds 24
dotmatics
mol io
 23 24  0  0  0  0  0  0  0  0999 V2000
   -3.4594    4.2972    0.0000 C   0  0  0  0  0  0  0  0  0  0  0  0
   -2.6324    4.2972    0.0000 C   0  0  0  0  0  0  0  0  0  0  0  0
   -2.2189    5.0134    0.0000 C   0  0  0  0  0  0  0  0  0  0  0  0
   -1.3919    5.0134    0.0000 C   0  0  0  0  0  0  0  0  0  0  0  0
   -0.9784    4.2972    0.0000 C   0  0  0  0  0  0  0  0  0  0  0  0
   -0.1514    4.2972    0.0000 C   0  0  0  0  0  0  0  0  0  0  0  0
    0.2621    5.0134    0.0000 O   0  0  0  0  0  0  0  0  0  0  0  0
    0.2621    3.5810    0.0000 N   0  0  0  0  0  0  0  0  0  0  0  0
    1.0891    3.5810    0.0000 C   0  0  0  0  0  0  0  0  0  0  0  0
    1.5026    4.2972    0.0000 C   0  0  0  0  0  0  0  0  0  0  0  0
    1.5026    2.8648    0.0000 C   0  0  0  0  0  0  0  0  0  0  0  0
    2.3296    2.8648    0.0000 C   0  0  0  0  0  0  0  0  0  0  0  0
    2.7431    2.1486    0.0000 C   0  0  0  0  0  0  0  0  0  0  0  0
    2.3296    1.4324    0.0000 C   0  0  0  0  0  0  0  0  0  0  0  0
    2.7431    0.7162    0.0000 S   0  0  0  0  0  0  0  0  0  0  0  0
    2.0269    0.3027    0.0000 C   0  0  0  0  0  0  0  0  0  0  0  0
    3.1566   -0.0000    0.0000 O   0  0  0  0  0  0  0  0  0  0  0  0
    3.4594    1.1297    0.0000 O   0  0  0  0  0  0  0  0  0  0  0  0
    1.5026    1.4324    0.0000 C   0  0  0  0  0  0  0  0  0  0  0  0
    1.0891    2.1486    0.0000 C   0  0  0  0  0  0  0  0  0  0  0  0
   -1.3919    3.5810    0.0000 C   0  0  0  0  0  0  0  0  0  0  0  0
   -0.9784    2.8648    0.0000 O   0  0  0  0  0  0  0  0  0  0  0  0
   -2.2189    3.5810    0.0000 N   0  0  0  0  0  0  0  0  0  0  0  0
  1  2  1  0  0  0
  2 23  1  0  0  0
  2  3  2  0  0  0
  3  4  1  0  0  0
  4  5  2  0  0  0
  5  6  1  0  0  0
  6  7  2  0  0  0
  6  8  1  0  0  0
  8  9  1  0  0  0
  9 10  1  0  0  0
  9 11  1  0  0  0
 11 20  1  0  0  0
 11 12  2  0  0  0
 12 13  1  0  0  0
 13 14  2  0  0  0
 14 15  1  0  0  0
 15 16  1  0  0  0
 15 17  2  0  0  0
 15 18  2  0  0  0
 14 19  1  0  0  0
 19 20  2  0  0  0
  5 21  1  0  0  0
 21 22  2  0  0  0
 21 23  1  0  0  0
M  END
>  <Entry>
52

>  <title>
11-6418

>  <rigid docking scores>
-16.8823

>  <InChIKey>
IFOLOVJYNLWNHO-UHFFFAOYSA-N

>  <Pubchem>
72049621

>  <Mcule>
MCULE-3094453218

>  <MolPort>
MolPort-023-189-932

$$$$
atoms 23 bonds 25
dotmatics
mol io
 23 25  0  0  0  0  0  0  0  0999 V2000
    7.8845   -1.2399    0.0000 C   0  0  0  0  0  0  0  0  0  0  0  0
    7.8838   -0.4129    0.0000 C   0  0  0  0  0  0  0  0  0  0  0  0
    8.5996    0.0012    0.0000 O   0  0  0  0  0  0  0  0  0  0  0  0
    7.1672    0.0000    0.0000 C   0  0  0  0  0  0  0  0  0  0  0  0
    6.4514   -0.4141    0.0000 C   0  0  0  0  0  0  0  0  0  0  0  0
    5.7348   -0.0012    0.0000 C   0  0  0  0  0  0  0  0  0  0  0  0
    5.7341    0.8258    0.0000 C   0  0  0  0  0  0  0  0  0  0  0  0
    5.0175    1.2386    0.0000 N   0  0  0  0  0  0  0  0  0  0  0  0
    4.3017    0.8245    0.0000 C   0  0  0  0  0  0  0  0  0  0  0  0
    4.3024   -0.0025    0.0000 O   0  0  0  0  0  0  0  0  0  0  0  0
    3.5851    1.2374    0.0000 C   0  0  0  0  0  0  0  0  0  0  0  0
    2.8693    0.8233    0.0000 N   0  0  0  0  0  0  0  0  0  0  0  0
    2.8693   -0.0050    0.0000 C   0  0  0  0  0  0  0  0  0  0  0  0
    2.1534   -0.4191    0.0000 C   0  0  0  0  0  0  0  0  0  0  0  0
    1.4317   -0.0050    0.0000 C   0  0  0  0  0  0  0  0  0  0  0  0
    0.7158   -0.4191    0.0000 C   0  0  0  0  0  0  0  0  0  0  0  0
    0.0000   -0.0050    0.0000 C   0  0  0  0  0  0  0  0  0  0  0  0
    0.0000    0.8233    0.0000 C   0  0  0  0  0  0  0  0  0  0  0  0
    0.7158    1.2374    0.0000 C   0  0  0  0  0  0  0  0  0  0  0  0
    1.4317    0.8233    0.0000 C   0  0  0  0  0  0  0  0  0  0  0  0
    2.1534    1.2374    0.0000 C   0  0  0  0  0  0  0  0  0  0  0  0
    6.4499    1.2399    0.0000 C   0  0  0  0  0  0  0  0  0  0  0  0
    7.1665    0.8270    0.0000 C   0  0  0  0  0  0  0  0  0  0  0  0
  1  2  1  0  0  0
  2  3  2  0  0  0
  2  4  1  0  0  0
  4 23  1  0  0  0
  4  5  2  0  0  0
  5  6  1  0  0  0
  6  7  2  0  0  0
  7  8  1  0  0  0
  8  9  1  0  0  0
  9 10  2  0  0  0
  9 11  1  0  0  0
 11 12  1  0  0  0
 12 21  1  0  0  0
 12 13  1  0  0  0
 13 14  1  0  0  0
 14 15  1  0  0  0
 15 20  1  0  0  0
 15 16  2  0  0  0
 16 17  1  0  0  0
 17 18  2  0  0  0
 18 19  1  0  0  0
 19 20  2  0  0  0
 20 21  1  0  0  0
  7 22  1  0  0  0
 22 23  2  0  0  0
M  END
>  <Entry>
53

>  <title>
11-6946

>  <rigid docking scores>
-18.9368

>  <InChIKey>
PBSLNBOTPJKIQT-UHFFFAOYSA-N

>  <ZINC>
ZINC000006084969

>  <eMolecules>
3401391

>  <Pubchem>
4782244

>  <Mcule>
MCULE-8224456394

>  <MolPort>
MolPort-004-084-735

$$$$
atoms 24 bonds 27
dotmatics
mol io
 24 27  0  0  0  0  0  0  0  0999 V2000
    4.3024    0.2046    0.0000 O   0  0  0  0  0  0  0  0  0  0  0  0
    4.3017    1.0316    0.0000 C   0  0  0  0  0  0  0  0  0  0  0  0
    3.5851    1.4444    0.0000 C   0  0  0  0  0  0  0  0  0  0  0  0
    2.8693    1.0303    0.0000 N   0  0  0  0  0  0  0  0  0  0  0  0
    2.8693    0.2021    0.0000 C   0  0  0  0  0  0  0  0  0  0  0  0
    2.1534   -0.2121    0.0000 C   0  0  0  0  0  0  0  0  0  0  0  0
    1.4317    0.2021    0.0000 C   0  0  0  0  0  0  0  0  0  0  0  0
    0.7158   -0.2121    0.0000 C   0  0  0  0  0  0  0  0  0  0  0  0
    0.0000    0.2021    0.0000 C   0  0  0  0  0  0  0  0  0  0  0  0
    0.0000    1.0303    0.0000 C   0  0  0  0  0  0  0  0  0  0  0  0
    0.7158    1.4444    0.0000 C   0  0  0  0  0  0  0  0  0  0  0  0
    1.4317    1.0303    0.0000 C   0  0  0  0  0  0  0  0  0  0  0  0
    2.1534    1.4444    0.0000 C   0  0  0  0  0  0  0  0  0  0  0  0
    5.0175    1.4457    0.0000 N   0  0  0  0  0  0  0  0  0  0  0  0
    5.7341    1.0328    0.0000 C   0  0  0  0  0  0  0  0  0  0  0  0
    6.4499    1.4469    0.0000 C   0  0  0  0  0  0  0  0  0  0  0  0
    7.1665    1.0341    0.0000 C   0  0  0  0  0  0  0  0  0  0  0  0
    7.1672    0.2071    0.0000 C   0  0  0  0  0  0  0  0  0  0  0  0
    6.4514   -0.2071    0.0000 C   0  0  0  0  0  0  0  0  0  0  0  0
    5.7348    0.2058    0.0000 C   0  0  0  0  0  0  0  0  0  0  0  0
    6.4521   -1.0341    0.0000 O   0  0  0  0  0  0  0  0  0  0  0  0
    7.1687   -1.4469    0.0000 C   0  0  0  0  0  0  0  0  0  0  0  0
    7.8845   -1.0328    0.0000 C   0  0  0  0  0  0  0  0  0  0  0  0
    7.8838   -0.2058    0.0000 O   0  0  0  0  0  0  0  0  0  0  0  0
  1  2  2  0  0  0
  2  3  1  0  0  0
  3  4  1  0  0  0
  4 13  1  0  0  0
  4  5  1  0  0  0
  5  6  1  0  0  0
  6  7  1  0  0  0
  7 12  1  0  0  0
  7  8  2  0  0  0
  8  9  1  0  0  0
  9 10  2  0  0  0
 10 11  1  0  0  0
 11 12  2  0  0  0
 12 13  1  0  0  0
  2 14  1  0  0  0
 14 15  1  0  0  0
 15 20  1  0  0  0
 15 16  2  0  0  0
 16 17  1  0  0  0
 17 18  2  0  0  0
 18 24  1  0  0  0
 18 19  1  0  0  0
 19 20  2  0  0  0
 19 21  1  0  0  0
 21 22  1  0  0  0
 22 23  1  0  0  0
 23 24  1  0  0  0
M  END
>  <Entry>
54

>  <title>
11-6949

>  <rigid docking scores>
-19.6513

>  <InChIKey>
NGBUMGSJTQZVEL-UHFFFAOYSA-N

>  <ZINC>
ZINC000003232685

>  <Pubchem>
2350711

>  <Mcule>
MCULE-6950389511

$$$$
atoms 21 bonds 23
dotmatics
mol io
 21 23  0  0  0  0  0  0  0  0999 V2000
    4.3017    0.8417    0.0000 O   0  0  0  0  0  0  0  0  0  0  0  0
    3.5851    0.4288    0.0000 C   0  0  0  0  0  0  0  0  0  0  0  0
    3.5844   -0.3982    0.0000 N   0  0  0  0  0  0  0  0  0  0  0  0
    4.3003   -0.8123    0.0000 C   0  0  0  0  0  0  0  0  0  0  0  0
    4.2995   -1.6393    0.0000 C   0  0  0  0  0  0  0  0  0  0  0  0
    4.9682   -2.1260    0.0000 C   0  0  0  0  0  0  0  0  0  0  0  0
    4.7119   -2.9123    0.0000 C   0  0  0  0  0  0  0  0  0  0  0  0
    3.8849   -2.9116    0.0000 C   0  0  0  0  0  0  0  0  0  0  0  0
    3.6300   -2.1248    0.0000 O   0  0  0  0  0  0  0  0  0  0  0  0
    2.8693    0.8429    0.0000 C   0  0  0  0  0  0  0  0  0  0  0  0
    2.8693    1.6712    0.0000 C   0  0  0  0  0  0  0  0  0  0  0  0
    2.1534    2.0853    0.0000 C   0  0  0  0  0  0  0  0  0  0  0  0
    2.1594    2.9123    0.0000 O   0  0  0  0  0  0  0  0  0  0  0  0
    1.4317    1.6712    0.0000 C   0  0  0  0  0  0  0  0  0  0  0  0
    1.4317    0.8429    0.0000 N   0  0  0  0  0  0  0  0  0  0  0  0
    2.1534    0.4288    0.0000 C   0  0  0  0  0  0  0  0  0  0  0  0
    2.1594   -0.3982    0.0000 O   0  0  0  0  0  0  0  0  0  0  0  0
    0.7158    0.4288    0.0000 C   0  0  0  0  0  0  0  0  0  0  0  0
    0.0000    0.8429    0.0000 C   0  0  0  0  0  0  0  0  0  0  0  0
    0.0000    1.6712    0.0000 C   0  0  0  0  0  0  0  0  0  0  0  0
    0.7158    2.0853    0.0000 C   0  0  0  0  0  0  0  0  0  0  0  0
  1  2  2  0  0  0
  2  3  1  0  0  0
  3  4  1  0  0  0
  4  5  1  0  0  0
  5  9  1  0  0  0
  5  6  2  0  0  0
  6  7  1  0  0  0
  7  8  2  0  0  0
  8  9  1  0  0  0
  2 10  1  0  0  0
 10 16  1  0  0  0
 10 11  2  0  0  0
 11 12  1  0  0  0
 12 13  1  0  0  0
 12 14  2  0  0  0
 14 21  1  0  0  0
 14 15  1  0  0  0
 15 16  1  0  0  0
 16 17  2  0  0  0
 15 18  1  0  0  0
 18 19  1  0  0  0
 19 20  1  0  0  0
 20 21  1  0  0  0
M  END
>  <Entry>
55

>  <title>
11-7137

>  <rigid docking scores>
-16.8744

>  <InChIKey>
JAPVODVILQYVJA-UHFFFAOYSA-N

$$$$
atoms 21 bonds 23
dotmatics
mol io
 21 23  0  0  0  0  0  0  0  0999 V2000
    3.2792    0.8701    0.0000 C   0  0  0  0  0  0  0  0  0  0  0  0
    2.4709    1.0453    0.0000 C   0  0  0  0  0  0  0  0  0  0  0  0
    1.9151    0.4329    0.0000 N   0  0  0  0  0  0  0  0  0  0  0  0
    2.1675   -0.3546    0.0000 C   0  0  0  0  0  0  0  0  0  0  0  0
    2.9758   -0.5298    0.0000 O   0  0  0  0  0  0  0  0  0  0  0  0
    1.6117   -0.9670    0.0000 C   0  0  0  0  0  0  0  0  0  0  0  0
    1.8641   -1.7545    0.0000 C   0  0  0  0  0  0  0  0  0  0  0  0
    2.6724   -1.9297    0.0000 C   0  0  0  0  0  0  0  0  0  0  0  0
    2.9248   -2.7172    0.0000 C   0  0  0  0  0  0  0  0  0  0  0  0
    2.3690   -3.3296    0.0000 C   0  0  0  0  0  0  0  0  0  0  0  0
    1.5607   -3.1544    0.0000 C   0  0  0  0  0  0  0  0  0  0  0  0
    1.3083   -2.3669    0.0000 C   0  0  0  0  0  0  0  0  0  0  0  0
    2.2185    1.8328    0.0000 C   0  0  0  0  0  0  0  0  0  0  0  0
    2.7096    2.5013    0.0000 C   0  0  0  0  0  0  0  0  0  0  0  0
    2.2185    3.1699    0.0000 O   0  0  0  0  0  0  0  0  0  0  0  0
    1.4317    2.9155    0.0000 C   0  0  0  0  0  0  0  0  0  0  0  0
    0.7158    3.3296    0.0000 C   0  0  0  0  0  0  0  0  0  0  0  0
    0.0000    2.9155    0.0000 C   0  0  0  0  0  0  0  0  0  0  0  0
    0.0000    2.0872    0.0000 C   0  0  0  0  0  0  0  0  0  0  0  0
    0.7158    1.6731    0.0000 C   0  0  0  0  0  0  0  0  0  0  0  0
    1.4317    2.0872    0.0000 C   0  0  0  0  0  0  0  0  0  0  0  0
  1  2  1  0  0  0
  2  3  1  0  0  0
  3  4  1  0  0  0
  4  5  2  0  0  0
  4  6  1  0  0  0
  6  7  1  0  0  0
  7 12  1  0  0  0
  7  8  2  0  0  0
  8  9  1  0  0  0
  9 10  2  0  0  0
 10 11  1  0  0  0
 11 12  2  0  0  0
  2 13  1  0  0  0
 13 21  1  0  0  0
 13 14  1  0  0  0
 14 15  1  0  0  0
 15 16  1  0  0  0
 16 21  1  0  0  0
 16 17  2  0  0  0
 17 18  1  0  0  0
 18 19  2  0  0  0
 19 20  1  0  0  0
 20 21  2  0  0  0
M  END
>  <Entry>
56

>  <title>
2-927

>  <rigid docking scores>
-16.7315

>  <InChIKey>
CDKFRBITZDFSPZ-UHFFFAOYSA-N

>  <Mcule>
MCULE-6679481354

$$$$
atoms 19 bonds 21
dotmatics
mol io
 19 21  0  0  0  0  0  0  0  0999 V2000
    3.2792    0.3888    0.0000 O   0  0  0  0  0  0  0  0  0  0  0  0
    2.4709    0.5639    0.0000 C   0  0  0  0  0  0  0  0  0  0  0  0
    1.9151   -0.0484    0.0000 N   0  0  0  0  0  0  0  0  0  0  0  0
    2.1675   -0.8360    0.0000 C   0  0  0  0  0  0  0  0  0  0  0  0
    1.6117   -1.4483    0.0000 C   0  0  0  0  0  0  0  0  0  0  0  0
    1.8641   -2.2359    0.0000 C   0  0  0  0  0  0  0  0  0  0  0  0
    1.3083   -2.8482    0.0000 C   0  0  0  0  0  0  0  0  0  0  0  0
    0.5001   -2.6731    0.0000 C   0  0  0  0  0  0  0  0  0  0  0  0
    0.2477   -1.8855    0.0000 C   0  0  0  0  0  0  0  0  0  0  0  0
    0.8035   -1.2732    0.0000 C   0  0  0  0  0  0  0  0  0  0  0  0
    2.2185    1.3515    0.0000 C   0  0  0  0  0  0  0  0  0  0  0  0
    2.7096    2.0200    0.0000 C   0  0  0  0  0  0  0  0  0  0  0  0
    2.2185    2.6885    0.0000 O   0  0  0  0  0  0  0  0  0  0  0  0
    1.4317    2.4341    0.0000 C   0  0  0  0  0  0  0  0  0  0  0  0
    0.7158    2.8482    0.0000 C   0  0  0  0  0  0  0  0  0  0  0  0
    0.0000    2.4341    0.0000 C   0  0  0  0  0  0  0  0  0  0  0  0
    0.0000    1.6059    0.0000 C   0  0  0  0  0  0  0  0  0  0  0  0
    0.7158    1.1917    0.0000 C   0  0  0  0  0  0  0  0  0  0  0  0
    1.4317    1.6059    0.0000 C   0  0  0  0  0  0  0  0  0  0  0  0
  1  2  2  0  0  0
  2  3  1  0  0  0
  3  4  1  0  0  0
  4  5  1  0  0  0
  5 10  1  0  0  0
  5  6  2  0  0  0
  6  7  1  0  0  0
  7  8  2  0  0  0
  8  9  1  0  0  0
  9 10  2  0  0  0
  2 11  1  0  0  0
 11 19  1  0  0  0
 11 12  1  0  0  0
 12 13  1  0  0  0
 13 14  1  0  0  0
 14 19  1  0  0  0
 14 15  2  0  0  0
 15 16  1  0  0  0
 16 17  2  0  0  0
 17 18  1  0  0  0
 18 19  2  0  0  0
M  END
>  <Entry>
57

>  <title>
2-947

>  <rigid docking scores>
-15.4014

>  <InChIKey>
HVLMHLGELXNIKL-UHFFFAOYSA-N

$$$$
atoms 21 bonds 23
dotmatics
mol io
 21 23  0  0  0  0  0  0  0  0999 V2000
    4.3024   -0.8264    0.0000 O   0  0  0  0  0  0  0  0  0  0  0  0
    4.3017    0.0006    0.0000 C   0  0  0  0  0  0  0  0  0  0  0  0
    3.5851    0.4135    0.0000 C   0  0  0  0  0  0  0  0  0  0  0  0
    2.8693   -0.0006    0.0000 N   0  0  0  0  0  0  0  0  0  0  0  0
    2.8693   -0.8289    0.0000 C   0  0  0  0  0  0  0  0  0  0  0  0
    2.1534   -1.2430    0.0000 C   0  0  0  0  0  0  0  0  0  0  0  0
    1.4317   -0.8289    0.0000 C   0  0  0  0  0  0  0  0  0  0  0  0
    0.7158   -1.2430    0.0000 C   0  0  0  0  0  0  0  0  0  0  0  0
    0.0000   -0.8289    0.0000 C   0  0  0  0  0  0  0  0  0  0  0  0
    0.0000   -0.0006    0.0000 C   0  0  0  0  0  0  0  0  0  0  0  0
    0.7158    0.4135    0.0000 C   0  0  0  0  0  0  0  0  0  0  0  0
    1.4317   -0.0006    0.0000 C   0  0  0  0  0  0  0  0  0  0  0  0
    2.1534    0.4135    0.0000 C   0  0  0  0  0  0  0  0  0  0  0  0
    5.0175    0.4147    0.0000 N   0  0  0  0  0  0  0  0  0  0  0  0
    5.7341    0.0019    0.0000 C   0  0  0  0  0  0  0  0  0  0  0  0
    5.7348   -0.8251    0.0000 C   0  0  0  0  0  0  0  0  0  0  0  0
    6.4514   -1.2380    0.0000 C   0  0  0  0  0  0  0  0  0  0  0  0
    7.1672   -0.8239    0.0000 C   0  0  0  0  0  0  0  0  0  0  0  0
    7.1665    0.0031    0.0000 C   0  0  0  0  0  0  0  0  0  0  0  0
    6.4499    0.4160    0.0000 C   0  0  0  0  0  0  0  0  0  0  0  0
    6.4492    1.2430    0.0000 O   0  0  0  0  0  0  0  0  0  0  0  0
  1  2  2  0  0  0
  2  3  1  0  0  0
  3  4  1  0  0  0
  4 13  1  0  0  0
  4  5  1  0  0  0
  5  6  1  0  0  0
  6  7  1  0  0  0
  7 12  1  0  0  0
  7  8  2  0  0  0
  8  9  1  0  0  0
  9 10  2  0  0  0
 10 11  1  0  0  0
 11 12  2  0  0  0
 12 13  1  0  0  0
  2 14  1  0  0  0
 14 15  1  0  0  0
 15 20  1  0  0  0
 15 16  2  0  0  0
 16 17  1  0  0  0
 17 18  2  0  0  0
 18 19  1  0  0  0
 19 20  2  0  0  0
 20 21  1  0  0  0
M  END
>  <Entry>
58

>  <title>
11-8152

>  <rigid docking scores>
-17.6188

>  <InChIKey>
WFZFMRDTZFYATO-UHFFFAOYSA-N

$$$$
atoms 23 bonds 25
dotmatics
mol io
 23 25  0  0  0  0  0  0  0  0999 V2000
    4.1412    2.8648    0.0000 C   0  0  0  0  0  0  0  0  0  0  0  0
    3.7271    2.1490    0.0000 C   0  0  0  0  0  0  0  0  0  0  0  0
    4.1412    1.4331    0.0000 C   0  0  0  0  0  0  0  0  0  0  0  0
    3.7271    0.7173    0.0000 C   0  0  0  0  0  0  0  0  0  0  0  0
    4.1412    0.0014    0.0000 N   0  0  0  0  0  0  0  0  0  0  0  0
    3.7284   -0.7151    0.0000 S   0  0  0  0  0  0  0  0  0  0  0  0
    4.4449   -1.1280    0.0000 O   0  0  0  0  0  0  0  0  0  0  0  0
    3.0118   -0.3022    0.0000 O   0  0  0  0  0  0  0  0  0  0  0  0
    3.3155   -1.4317    0.0000 C   0  0  0  0  0  0  0  0  0  0  0  0
    3.7296   -2.1475    0.0000 C   0  0  0  0  0  0  0  0  0  0  0  0
    3.3167   -2.8641    0.0000 C   0  0  0  0  0  0  0  0  0  0  0  0
    2.4897   -2.8648    0.0000 C   0  0  0  0  0  0  0  0  0  0  0  0
    2.0756   -2.1490    0.0000 C   0  0  0  0  0  0  0  0  0  0  0  0
    2.4885   -1.4324    0.0000 C   0  0  0  0  0  0  0  0  0  0  0  0
    2.8989    0.7173    0.0000 N   0  0  0  0  0  0  0  0  0  0  0  0
    2.4847    1.4331    0.0000 C   0  0  0  0  0  0  0  0  0  0  0  0
    1.6565    1.4331    0.0000 C   0  0  0  0  0  0  0  0  0  0  0  0
    1.2424    0.7173    0.0000 C   0  0  0  0  0  0  0  0  0  0  0  0
    0.4141    0.7173    0.0000 C   0  0  0  0  0  0  0  0  0  0  0  0
    0.0000    1.4331    0.0000 C   0  0  0  0  0  0  0  0  0  0  0  0
    0.4141    2.1490    0.0000 C   0  0  0  0  0  0  0  0  0  0  0  0
    1.2424    2.1490    0.0000 C   0  0  0  0  0  0  0  0  0  0  0  0
    2.8989    2.1490    0.0000 N   0  0  0  0  0  0  0  0  0  0  0  0
  1  2  1  0  0  0
  2 23  1  0  0  0
  2  3  2  0  0  0
  3  4  1  0  0  0
  4  5  1  0  0  0
  5  6  1  0  0  0
  6  7  2  0  0  0
  6  8  2  0  0  0
  6  9  1  0  0  0
  9 14  1  0  0  0
  9 10  2  0  0  0
 10 11  1  0  0  0
 11 12  2  0  0  0
 12 13  1  0  0  0
 13 14  2  0  0  0
  4 15  2  0  0  0
 15 16  1  0  0  0
 16 17  1  0  0  0
 17 22  1  0  0  0
 17 18  2  0  0  0
 18 19  1  0  0  0
 19 20  2  0  0  0
 20 21  1  0  0  0
 21 22  2  0  0  0
 16 23  2  0  0  0
M  END
>  <Entry>
59

>  <title>
11-8463

>  <rigid docking scores>
-19.7014

>  <InChIKey>
WYJZRCJFIANFQZ-UHFFFAOYSA-N

$$$$
atoms 23 bonds 25
dotmatics
mol io
 23 25  0  0  0  0  0  0  0  0999 V2000
    7.3393    1.0168    0.0000 C   0  0  0  0  0  0  0  0  0  0  0  0
    6.6235    1.4310    0.0000 S   0  0  0  0  0  0  0  0  0  0  0  0
    7.0376    2.1468    0.0000 O   0  0  0  0  0  0  0  0  0  0  0  0
    5.9076    1.8451    0.0000 O   0  0  0  0  0  0  0  0  0  0  0  0
    6.2094    0.7151    0.0000 C   0  0  0  0  0  0  0  0  0  0  0  0
    6.6222   -0.0014    0.0000 C   0  0  0  0  0  0  0  0  0  0  0  0
    6.2081   -0.7173    0.0000 C   0  0  0  0  0  0  0  0  0  0  0  0
    5.3811   -0.7166    0.0000 C   0  0  0  0  0  0  0  0  0  0  0  0
    4.9682    0.0000    0.0000 C   0  0  0  0  0  0  0  0  0  0  0  0
    4.1412    0.0007    0.0000 N   0  0  0  0  0  0  0  0  0  0  0  0
    3.7271   -0.7151    0.0000 C   0  0  0  0  0  0  0  0  0  0  0  0
    4.1412   -1.4310    0.0000 C   0  0  0  0  0  0  0  0  0  0  0  0
    3.7271   -2.1468    0.0000 C   0  0  0  0  0  0  0  0  0  0  0  0
    2.8989   -2.1468    0.0000 N   0  0  0  0  0  0  0  0  0  0  0  0
    2.4847   -1.4310    0.0000 C   0  0  0  0  0  0  0  0  0  0  0  0
    1.6565   -1.4310    0.0000 C   0  0  0  0  0  0  0  0  0  0  0  0
    1.2424   -2.1468    0.0000 C   0  0  0  0  0  0  0  0  0  0  0  0
    0.4141   -2.1468    0.0000 C   0  0  0  0  0  0  0  0  0  0  0  0
    0.0000   -1.4310    0.0000 C   0  0  0  0  0  0  0  0  0  0  0  0
    0.4141   -0.7151    0.0000 C   0  0  0  0  0  0  0  0  0  0  0  0
    1.2424   -0.7151    0.0000 C   0  0  0  0  0  0  0  0  0  0  0  0
    2.8989   -0.7151    0.0000 N   0  0  0  0  0  0  0  0  0  0  0  0
    5.3824    0.7158    0.0000 C   0  0  0  0  0  0  0  0  0  0  0  0
  1  2  1  0  0  0
  2  3  2  0  0  0
  2  4  2  0  0  0
  2  5  1  0  0  0
  5 23  1  0  0  0
  5  6  2  0  0  0
  6  7  1  0  0  0
  7  8  2  0  0  0
  8  9  1  0  0  0
  9 10  1  0  0  0
 10 11  1  0  0  0
 11 22  1  0  0  0
 11 12  2  0  0  0
 12 13  1  0  0  0
 13 14  2  0  0  0
 14 15  1  0  0  0
 15 16  1  0  0  0
 16 21  1  0  0  0
 16 17  2  0  0  0
 17 18  1  0  0  0
 18 19  2  0  0  0
 19 20  1  0  0  0
 20 21  2  0  0  0
 15 22  2  0  0  0
  9 23  2  0  0  0
M  END
>  <Entry>
60

>  <title>
11-8664

>  <rigid docking scores>
-16.0582

>  <InChIKey>
KWDNNSUBJCQUKA-UHFFFAOYSA-N

$$$$
atoms 20 bonds 22
dotmatics
mol io
 20 22  0  0  0  0  0  0  0  0999 V2000
    1.4923   -2.3469    0.0000 C   0  0  0  0  0  0  0  0  0  0  0  0
    1.1573   -1.5907    0.0000 C   0  0  0  0  0  0  0  0  0  0  0  0
    0.3350   -1.5028    0.0000 C   0  0  0  0  0  0  0  0  0  0  0  0
    0.0000   -0.7467    0.0000 C   0  0  0  0  0  0  0  0  0  0  0  0
    0.4873   -0.0785    0.0000 C   0  0  0  0  0  0  0  0  0  0  0  0
    1.3096   -0.1665    0.0000 C   0  0  0  0  0  0  0  0  0  0  0  0
    1.7969    0.5017    0.0000 C   0  0  0  0  0  0  0  0  0  0  0  0
    2.6227    0.5017    0.0000 C   0  0  0  0  0  0  0  0  0  0  0  0
    2.8763    1.2862    0.0000 C   0  0  0  0  0  0  0  0  0  0  0  0
    3.6639    1.5386    0.0000 C   0  0  0  0  0  0  0  0  0  0  0  0
    3.8391    2.3469    0.0000 O   0  0  0  0  0  0  0  0  0  0  0  0
    4.2763    0.9828    0.0000 N   0  0  0  0  0  0  0  0  0  0  0  0
    5.0638    1.2352    0.0000 C   0  0  0  0  0  0  0  0  0  0  0  0
    5.6762    0.6794    0.0000 C   0  0  0  0  0  0  0  0  0  0  0  0
    6.5022    0.7194    0.0000 C   0  0  0  0  0  0  0  0  0  0  0  0
    6.5422   -0.1067    0.0000 C   0  0  0  0  0  0  0  0  0  0  0  0
    5.7161   -0.1466    0.0000 C   0  0  0  0  0  0  0  0  0  0  0  0
    2.2098    1.7758    0.0000 N   0  0  0  0  0  0  0  0  0  0  0  0
    1.5433    1.2862    0.0000 N   0  0  0  0  0  0  0  0  0  0  0  0
    1.6446   -0.9226    0.0000 C   0  0  0  0  0  0  0  0  0  0  0  0
  1  2  1  0  0  0
  2 20  1  0  0  0
  2  3  2  0  0  0
  3  4  1  0  0  0
  4  5  2  0  0  0
  5  6  1  0  0  0
  6  7  1  0  0  0
  7 19  2  0  0  0
  7  8  1  0  0  0
  8  9  2  0  0  0
  9 10  1  0  0  0
 10 11  2  0  0  0
 10 12  1  0  0  0
 12 13  1  0  0  0
 13 14  1  0  0  0
 14 17  1  0  0  0
 14 15  1  0  0  0
 15 16  1  0  0  0
 16 17  1  0  0  0
  9 18  1  0  0  0
 18 19  1  0  0  0
  6 20  2  0  0  0
M  END
>  <Entry>
61

>  <title>
2-1092

>  <rigid docking scores>
-15.3857

>  <InChIKey>
GGJCTKJKUZZSFG-UHFFFAOYSA-N

$$$$
atoms 21 bonds 23
dotmatics
mol io
 21 23  0  0  0  0  0  0  0  0999 V2000
    0.2045   -0.0000    0.0000 O   0  0  0  0  0  0  0  0  0  0  0  0
    0.6180    0.7162    0.0000 C   0  0  0  0  0  0  0  0  0  0  0  0
    1.4450    0.7162    0.0000 C   0  0  0  0  0  0  0  0  0  0  0  0
    1.9311    1.3853    0.0000 C   0  0  0  0  0  0  0  0  0  0  0  0
    2.7176    1.1297    0.0000 S   0  0  0  0  0  0  0  0  0  0  0  0
    2.7176    0.3027    0.0000 N   0  0  0  0  0  0  0  0  0  0  0  0
    1.9311    0.0471    0.0000 N   0  0  0  0  0  0  0  0  0  0  0  0
    0.2045    1.4324    0.0000 N   0  0  0  0  0  0  0  0  0  0  0  0
    0.6180    2.1486    0.0000 C   0  0  0  0  0  0  0  0  0  0  0  0
    0.2045    2.8648    0.0000 C   0  0  0  0  0  0  0  0  0  0  0  0
    0.5409    3.6203    0.0000 C   0  0  0  0  0  0  0  0  0  0  0  0
   -0.0737    4.1737    0.0000 C   0  0  0  0  0  0  0  0  0  0  0  0
   -0.7899    3.7602    0.0000 C   0  0  0  0  0  0  0  0  0  0  0  0
   -0.6180    2.9513    0.0000 S   0  0  0  0  0  0  0  0  0  0  0  0
   -0.6225    1.4324    0.0000 C   0  0  0  0  0  0  0  0  0  0  0  0
   -1.1086    2.1015    0.0000 C   0  0  0  0  0  0  0  0  0  0  0  0
   -1.8951    1.8459    0.0000 C   0  0  0  0  0  0  0  0  0  0  0  0
   -1.8951    1.0189    0.0000 S   0  0  0  0  0  0  0  0  0  0  0  0
   -2.7176    0.9325    0.0000 O   0  0  0  0  0  0  0  0  0  0  0  0
   -2.2315    0.2634    0.0000 O   0  0  0  0  0  0  0  0  0  0  0  0
   -1.1086    0.7633    0.0000 C   0  0  0  0  0  0  0  0  0  0  0  0
  1  2  2  0  0  0
  2  3  1  0  0  0
  3  7  1  0  0  0
  3  4  2  0  0  0
  4  5  1  0  0  0
  5  6  1  0  0  0
  6  7  2  0  0  0
  2  8  1  0  0  0
  8  9  1  0  0  0
  9 10  1  0  0  0
 10 14  1  0  0  0
 10 11  2  0  0  0
 11 12  1  0  0  0
 12 13  2  0  0  0
 13 14  1  0  0  0
  8 15  1  0  0  0
 15 21  1  0  0  0
 15 16  1  0  0  0
 16 17  1  0  0  0
 17 18  1  0  0  0
 18 19  2  0  0  0
 18 20  2  0  0  0
 18 21  1  0  0  0
M  END
>  <Entry>
62

>  <title>
11-9975

>  <rigid docking scores>
-17.7417

>  <InChIKey>
IXNCGCBIHGPTTJ-UHFFFAOYSA-N

$$$$
atoms 19 bonds 21
dotmatics
mol io
 19 21  0  0  0  0  0  0  0  0999 V2000
    2.9758   -1.0111    0.0000 O   0  0  0  0  0  0  0  0  0  0  0  0
    2.1675   -0.8360    0.0000 C   0  0  0  0  0  0  0  0  0  0  0  0
    1.9151   -0.0484    0.0000 C   0  0  0  0  0  0  0  0  0  0  0  0
    2.4709    0.5639    0.0000 C   0  0  0  0  0  0  0  0  0  0  0  0
    2.2185    1.3515    0.0000 C   0  0  0  0  0  0  0  0  0  0  0  0
    2.7096    2.0200    0.0000 C   0  0  0  0  0  0  0  0  0  0  0  0
    2.2185    2.6885    0.0000 N   0  0  0  0  0  0  0  0  0  0  0  0
    1.4317    2.4341    0.0000 C   0  0  0  0  0  0  0  0  0  0  0  0
    0.7158    2.8482    0.0000 C   0  0  0  0  0  0  0  0  0  0  0  0
    0.0000    2.4341    0.0000 C   0  0  0  0  0  0  0  0  0  0  0  0
    0.0000    1.6059    0.0000 C   0  0  0  0  0  0  0  0  0  0  0  0
    0.7158    1.1917    0.0000 C   0  0  0  0  0  0  0  0  0  0  0  0
    1.4317    1.6059    0.0000 C   0  0  0  0  0  0  0  0  0  0  0  0
    1.6117   -1.4483    0.0000 N   0  0  0  0  0  0  0  0  0  0  0  0
    1.8641   -2.2359    0.0000 C   0  0  0  0  0  0  0  0  0  0  0  0
    1.3083   -2.8482    0.0000 C   0  0  0  0  0  0  0  0  0  0  0  0
    0.5001   -2.6731    0.0000 O   0  0  0  0  0  0  0  0  0  0  0  0
    0.2477   -1.8855    0.0000 C   0  0  0  0  0  0  0  0  0  0  0  0
    0.8035   -1.2732    0.0000 C   0  0  0  0  0  0  0  0  0  0  0  0
  1  2  2  0  0  0
  2  3  1  0  0  0
  3  4  2  0  0  0
  4  5  1  0  0  0
  5 13  1  0  0  0
  5  6  2  0  0  0
  6  7  1  0  0  0
  7  8  1  0  0  0
  8 13  1  0  0  0
  8  9  2  0  0  0
  9 10  1  0  0  0
 10 11  2  0  0  0
 11 12  1  0  0  0
 12 13  2  0  0  0
  2 14  1  0  0  0
 14 19  1  0  0  0
 14 15  1  0  0  0
 15 16  1  0  0  0
 16 17  1  0  0  0
 17 18  1  0  0  0
 18 19  1  0  0  0
M  END
>  <Entry>
63

>  <title>
12-20

>  <rigid docking scores>
-16.04

>  <InChIKey>
PTQOVMYCCILAIZ-AATRIKPKSA-N

>  <ZINC>
ZINC000001497031

>  <Pubchem>
5932471

>  <Mcule>
MCULE-6311852079

>  <MolPort>
MolPort-002-318-763

$$$$
atoms 19 bonds 21
dotmatics
mol io
 19 21  0  0  0  0  0  0  0  0999 V2000
   -0.5734    3.4146    0.0000 O   0  0  0  0  0  0  0  0  0  0  0  0
   -0.9869    2.6984    0.0000 C   0  0  0  0  0  0  0  0  0  0  0  0
   -0.5734    1.9822    0.0000 C   0  0  0  0  0  0  0  0  0  0  0  0
    0.2536    1.9822    0.0000 C   0  0  0  0  0  0  0  0  0  0  0  0
    0.7397    2.6512    0.0000 N   0  0  0  0  0  0  0  0  0  0  0  0
    1.5262    2.3957    0.0000 N   0  0  0  0  0  0  0  0  0  0  0  0
    1.5262    1.5687    0.0000 C   0  0  0  0  0  0  0  0  0  0  0  0
    2.1953    1.0826    0.0000 C   0  0  0  0  0  0  0  0  0  0  0  0
    2.9818    1.3381    0.0000 C   0  0  0  0  0  0  0  0  0  0  0  0
    3.4679    0.6691    0.0000 C   0  0  0  0  0  0  0  0  0  0  0  0
    2.9818   -0.0000    0.0000 C   0  0  0  0  0  0  0  0  0  0  0  0
    2.1953    0.2556    0.0000 S   0  0  0  0  0  0  0  0  0  0  0  0
    0.7397    1.3131    0.0000 O   0  0  0  0  0  0  0  0  0  0  0  0
   -1.8139    2.6984    0.0000 N   0  0  0  0  0  0  0  0  0  0  0  0
   -2.2274    1.9822    0.0000 C   0  0  0  0  0  0  0  0  0  0  0  0
   -3.0544    1.9822    0.0000 C   0  0  0  0  0  0  0  0  0  0  0  0
   -3.4679    2.6984    0.0000 O   0  0  0  0  0  0  0  0  0  0  0  0
   -3.0544    3.4146    0.0000 C   0  0  0  0  0  0  0  0  0  0  0  0
   -2.2274    3.4146    0.0000 C   0  0  0  0  0  0  0  0  0  0  0  0
  1  2  2  0  0  0
  2  3  1  0  0  0
  3  4  1  0  0  0
  4 13  1  0  0  0
  4  5  2  0  0  0
  5  6  1  0  0  0
  6  7  2  0  0  0
  7  8  1  0  0  0
  8 12  1  0  0  0
  8  9  2  0  0  0
  9 10  1  0  0  0
 10 11  2  0  0  0
 11 12  1  0  0  0
  7 13  1  0  0  0
  2 14  1  0  0  0
 14 19  1  0  0  0
 14 15  1  0  0  0
 15 16  1  0  0  0
 16 17  1  0  0  0
 17 18  1  0  0  0
 18 19  1  0  0  0
M  END
>  <Entry>
64

>  <title>
12-207

>  <rigid docking scores>
-17.285

>  <InChIKey>
PHWPUWVQNQUFRG-UHFFFAOYSA-N

$$$$
atoms 20 bonds 22
dotmatics
mol io
 20 22  0  0  0  0  0  0  0  0999 V2000
   -2.5647    4.8726    0.0000 C   0  0  0  0  0  0  0  0  0  0  0  0
   -2.1512    4.1564    0.0000 C   0  0  0  0  0  0  0  0  0  0  0  0
   -2.5647    3.4402    0.0000 O   0  0  0  0  0  0  0  0  0  0  0  0
   -1.3242    4.1564    0.0000 N   0  0  0  0  0  0  0  0  0  0  0  0
   -0.9107    4.8726    0.0000 C   0  0  0  0  0  0  0  0  0  0  0  0
   -0.0837    4.8726    0.0000 C   0  0  0  0  0  0  0  0  0  0  0  0
    0.3298    4.1564    0.0000 N   0  0  0  0  0  0  0  0  0  0  0  0
    1.1568    4.1564    0.0000 C   0  0  0  0  0  0  0  0  0  0  0  0
    1.5703    3.4402    0.0000 C   0  0  0  0  0  0  0  0  0  0  0  0
    2.3928    3.3538    0.0000 N   0  0  0  0  0  0  0  0  0  0  0  0
    2.5647    2.5448    0.0000 N   0  0  0  0  0  0  0  0  0  0  0  0
    1.8485    2.1313    0.0000 C   0  0  0  0  0  0  0  0  0  0  0  0
    1.7621    1.3089    0.0000 C   0  0  0  0  0  0  0  0  0  0  0  0
    2.3766    0.7555    0.0000 C   0  0  0  0  0  0  0  0  0  0  0  0
    2.0403   -0.0000    0.0000 C   0  0  0  0  0  0  0  0  0  0  0  0
    1.2178    0.0864    0.0000 S   0  0  0  0  0  0  0  0  0  0  0  0
    1.0459    0.8954    0.0000 C   0  0  0  0  0  0  0  0  0  0  0  0
    1.2339    2.6847    0.0000 O   0  0  0  0  0  0  0  0  0  0  0  0
   -0.0837    3.4402    0.0000 C   0  0  0  0  0  0  0  0  0  0  0  0
   -0.9107    3.4402    0.0000 C   0  0  0  0  0  0  0  0  0  0  0  0
  1  2  1  0  0  0
  2  3  2  0  0  0
  2  4  1  0  0  0
  4 20  1  0  0  0
  4  5  1  0  0  0
  5  6  1  0  0  0
  6  7  1  0  0  0
  7  8  1  0  0  0
  8  9  1  0  0  0
  9 18  1  0  0  0
  9 10  2  0  0  0
 10 11  1  0  0  0
 11 12  2  0  0  0
 12 13  1  0  0  0
 13 17  2  0  0  0
 13 14  1  0  0  0
 14 15  2  0  0  0
 15 16  1  0  0  0
 16 17  1  0  0  0
 12 18  1  0  0  0
  7 19  1  0  0  0
 19 20  1  0  0  0
M  END
>  <Entry>
65

>  <title>
12-526

>  <rigid docking scores>
-15.3826

>  <InChIKey>
OMRUPZFHISDAER-UHFFFAOYSA-N

$$$$
atoms 21 bonds 23
dotmatics
mol io
 21 23  0  0  0  0  0  0  0  0999 V2000
    6.0312    2.5647    0.0000 C   0  0  0  0  0  0  0  0  0  0  0  0
    5.3150    2.1512    0.0000 C   0  0  0  0  0  0  0  0  0  0  0  0
    5.3150    1.3242    0.0000 N   0  0  0  0  0  0  0  0  0  0  0  0
    6.0312    0.9107    0.0000 C   0  0  0  0  0  0  0  0  0  0  0  0
    6.0312    0.0837    0.0000 C   0  0  0  0  0  0  0  0  0  0  0  0
    5.3150   -0.3298    0.0000 N   0  0  0  0  0  0  0  0  0  0  0  0
    5.3150   -1.1568    0.0000 C   0  0  0  0  0  0  0  0  0  0  0  0
    4.5988   -1.5703    0.0000 C   0  0  0  0  0  0  0  0  0  0  0  0
    4.5123   -2.3928    0.0000 C   0  0  0  0  0  0  0  0  0  0  0  0
    3.7034   -2.5647    0.0000 O   0  0  0  0  0  0  0  0  0  0  0  0
    3.2899   -1.8485    0.0000 C   0  0  0  0  0  0  0  0  0  0  0  0
    2.4674   -1.7621    0.0000 C   0  0  0  0  0  0  0  0  0  0  0  0
    1.9813   -2.4311    0.0000 C   0  0  0  0  0  0  0  0  0  0  0  0
    1.1588   -2.3447    0.0000 C   0  0  0  0  0  0  0  0  0  0  0  0
    0.8225   -1.5892    0.0000 C   0  0  0  0  0  0  0  0  0  0  0  0
    0.0000   -1.5027    0.0000 F   0  0  0  0  0  0  0  0  0  0  0  0
    1.3086   -0.9201    0.0000 C   0  0  0  0  0  0  0  0  0  0  0  0
    2.1310   -1.0066    0.0000 C   0  0  0  0  0  0  0  0  0  0  0  0
    3.8432   -1.2339    0.0000 N   0  0  0  0  0  0  0  0  0  0  0  0
    4.5988    0.0837    0.0000 C   0  0  0  0  0  0  0  0  0  0  0  0
    4.5988    0.9107    0.0000 C   0  0  0  0  0  0  0  0  0  0  0  0
  1  2  1  0  0  0
  2  3  1  0  0  0
  3 21  1  0  0  0
  3  4  1  0  0  0
  4  5  1  0  0  0
  5  6  1  0  0  0
  6  7  1  0  0  0
  7  8  1  0  0  0
  8 19  1  0  0  0
  8  9  2  0  0  0
  9 10  1  0  0  0
 10 11  1  0  0  0
 11 12  1  0  0  0
 12 18  1  0  0  0
 12 13  2  0  0  0
 13 14  1  0  0  0
 14 15  2  0  0  0
 15 16  1  0  0  0
 15 17  1  0  0  0
 17 18  2  0  0  0
 11 19  2  0  0  0
  6 20  1  0  0  0
 20 21  1  0  0  0
M  END
>  <Entry>
66

>  <title>
12-541

>  <rigid docking scores>
-16.7095

>  <InChIKey>
JGWCYVXMTDZXGT-UHFFFAOYSA-N

>  <ZINC>
ZINC000065622714

>  <eMolecules>
35693970

>  <Pubchem>
53520331

>  <Mcule>
MCULE-5337859746

>  <MolPort>
MolPort-019-647-883

$$$$
atoms 24 bonds 27
dotmatics
mol io
 24 27  0  0  0  0  0  0  0  0999 V2000
    1.9151    1.1856    0.0000 O   0  0  0  0  0  0  0  0  0  0  0  0
    2.4709    0.5732    0.0000 C   0  0  0  0  0  0  0  0  0  0  0  0
    3.2792    0.7484    0.0000 N   0  0  0  0  0  0  0  0  0  0  0  0
    3.5316    1.5359    0.0000 C   0  0  0  0  0  0  0  0  0  0  0  0
    4.3398    1.7111    0.0000 C   0  0  0  0  0  0  0  0  0  0  0  0
    4.8956    1.0987    0.0000 C   0  0  0  0  0  0  0  0  0  0  0  0
    5.7039    1.2739    0.0000 C   0  0  0  0  0  0  0  0  0  0  0  0
    6.2597    0.6615    0.0000 N   0  0  0  0  0  0  0  0  0  0  0  0
    7.0679    0.8367    0.0000 C   0  0  0  0  0  0  0  0  0  0  0  0
    7.6238    0.2243    0.0000 C   0  0  0  0  0  0  0  0  0  0  0  0
    7.3713   -0.5632    0.0000 O   0  0  0  0  0  0  0  0  0  0  0  0
    6.5631   -0.7384    0.0000 C   0  0  0  0  0  0  0  0  0  0  0  0
    6.0073   -0.1260    0.0000 C   0  0  0  0  0  0  0  0  0  0  0  0
    4.6432    0.3112    0.0000 C   0  0  0  0  0  0  0  0  0  0  0  0
    3.8350    0.1360    0.0000 C   0  0  0  0  0  0  0  0  0  0  0  0
    2.2185   -0.2143    0.0000 N   0  0  0  0  0  0  0  0  0  0  0  0
    2.7096   -0.8828    0.0000 N   0  0  0  0  0  0  0  0  0  0  0  0
    2.2185   -1.5514    0.0000 N   0  0  0  0  0  0  0  0  0  0  0  0
    1.4317   -1.2970    0.0000 C   0  0  0  0  0  0  0  0  0  0  0  0
    0.7158   -1.7111    0.0000 C   0  0  0  0  0  0  0  0  0  0  0  0
    0.0000   -1.2970    0.0000 C   0  0  0  0  0  0  0  0  0  0  0  0
    0.0000   -0.4687    0.0000 C   0  0  0  0  0  0  0  0  0  0  0  0
    0.7158   -0.0546    0.0000 C   0  0  0  0  0  0  0  0  0  0  0  0
    1.4317   -0.4687    0.0000 C   0  0  0  0  0  0  0  0  0  0  0  0
  1  2  2  0  0  0
  2  3  1  0  0  0
  3 15  1  0  0  0
  3  4  1  0  0  0
  4  5  1  0  0  0
  5  6  1  0  0  0
  6  7  1  0  0  0
  7  8  1  0  0  0
  8 13  1  0  0  0
  8  9  1  0  0  0
  9 10  1  0  0  0
 10 11  1  0  0  0
 11 12  1  0  0  0
 12 13  1  0  0  0
  6 14  1  0  0  0
 14 15  1  0  0  0
  2 16  1  0  0  0
 16 24  1  0  0  0
 16 17  1  0  0  0
 17 18  2  0  0  0
 18 19  1  0  0  0
 19 24  1  0  0  0
 19 20  2  0  0  0
 20 21  1  0  0  0
 21 22  2  0  0  0
 22 23  1  0  0  0
 23 24  2  0  0  0
M  END
>  <Entry>
67

>  <title>
12-559

>  <rigid docking scores>
-16.3938

>  <InChIKey>
IMAFHUNJRKPULX-UHFFFAOYSA-N

$$$$
atoms 22 bonds 24
dotmatics
mol io
 22 24  0  0  0  0  0  0  0  0999 V2000
    4.3076   -0.7020    0.0000 O   0  0  0  0  0  0  0  0  0  0  0  0
    3.5943   -0.2834    0.0000 C   0  0  0  0  0  0  0  0  0  0  0  0
    2.8752   -0.6918    0.0000 C   0  0  0  0  0  0  0  0  0  0  0  0
    2.8693   -1.5188    0.0000 N   0  0  0  0  0  0  0  0  0  0  0  0
    3.5851   -1.9329    0.0000 C   0  0  0  0  0  0  0  0  0  0  0  0
    3.5851   -2.7611    0.0000 C   0  0  0  0  0  0  0  0  0  0  0  0
    2.8693   -3.1753    0.0000 O   0  0  0  0  0  0  0  0  0  0  0  0
    2.1475   -2.7611    0.0000 C   0  0  0  0  0  0  0  0  0  0  0  0
    1.4317   -3.1753    0.0000 C   0  0  0  0  0  0  0  0  0  0  0  0
    0.7158   -2.7611    0.0000 C   0  0  0  0  0  0  0  0  0  0  0  0
    0.7158   -1.9329    0.0000 C   0  0  0  0  0  0  0  0  0  0  0  0
    0.0000   -1.5188    0.0000 F   0  0  0  0  0  0  0  0  0  0  0  0
    1.4317   -1.5188    0.0000 C   0  0  0  0  0  0  0  0  0  0  0  0
    2.1475   -1.9329    0.0000 C   0  0  0  0  0  0  0  0  0  0  0  0
    3.6002    0.5436    0.0000 N   0  0  0  0  0  0  0  0  0  0  0  0
    4.3194    0.9519    0.0000 C   0  0  0  0  0  0  0  0  0  0  0  0
    4.3253    1.7789    0.0000 C   0  0  0  0  0  0  0  0  0  0  0  0
    5.0444    2.1873    0.0000 C   0  0  0  0  0  0  0  0  0  0  0  0
    5.1367    3.0091    0.0000 C   0  0  0  0  0  0  0  0  0  0  0  0
    5.9469    3.1753    0.0000 C   0  0  0  0  0  0  0  0  0  0  0  0
    6.3553    2.4561    0.0000 C   0  0  0  0  0  0  0  0  0  0  0  0
    5.7975    1.8455    0.0000 S   0  0  0  0  0  0  0  0  0  0  0  0
  1  2  2  0  0  0
  2  3  1  0  0  0
  3  4  1  0  0  0
  4 14  1  0  0  0
  4  5  1  0  0  0
  5  6  1  0  0  0
  6  7  1  0  0  0
  7  8  1  0  0  0
  8 14  1  0  0  0
  8  9  2  0  0  0
  9 10  1  0  0  0
 10 11  2  0  0  0
 11 12  1  0  0  0
 11 13  1  0  0  0
 13 14  2  0  0  0
  2 15  1  0  0  0
 15 16  1  0  0  0
 16 17  1  0  0  0
 17 18  1  0  0  0
 18 22  1  0  0  0
 18 19  2  0  0  0
 19 20  1  0  0  0
 20 21  2  0  0  0
 21 22  1  0  0  0
M  END
>  <Entry>
68

>  <title>
12-677

>  <rigid docking scores>
-17.4437

>  <InChIKey>
GXGPZQRGYWHJBH-UHFFFAOYSA-N

$$$$
atoms 20 bonds 22
dotmatics
mol io
 20 22  0  0  0  0  0  0  0  0999 V2000
   -3.1398    1.9822    0.0000 C   0  0  0  0  0  0  0  0  0  0  0  0
   -2.3128    1.9822    0.0000 C   0  0  0  0  0  0  0  0  0  0  0  0
   -1.8267    2.6512    0.0000 N   0  0  0  0  0  0  0  0  0  0  0  0
   -1.0401    2.3957    0.0000 C   0  0  0  0  0  0  0  0  0  0  0  0
   -0.3711    2.8818    0.0000 C   0  0  0  0  0  0  0  0  0  0  0  0
   -0.4575    3.7042    0.0000 O   0  0  0  0  0  0  0  0  0  0  0  0
    0.3844    2.5454    0.0000 N   0  0  0  0  0  0  0  0  0  0  0  0
    1.0535    3.0315    0.0000 C   0  0  0  0  0  0  0  0  0  0  0  0
    1.8090    2.6951    0.0000 C   0  0  0  0  0  0  0  0  0  0  0  0
    2.5252    3.1086    0.0000 C   0  0  0  0  0  0  0  0  0  0  0  0
    3.1398    2.5552    0.0000 C   0  0  0  0  0  0  0  0  0  0  0  0
    2.8034    1.7997    0.0000 C   0  0  0  0  0  0  0  0  0  0  0  0
    1.9809    1.8862    0.0000 O   0  0  0  0  0  0  0  0  0  0  0  0
   -1.0401    1.5687    0.0000 C   0  0  0  0  0  0  0  0  0  0  0  0
   -0.3711    1.0826    0.0000 C   0  0  0  0  0  0  0  0  0  0  0  0
    0.4154    1.3381    0.0000 C   0  0  0  0  0  0  0  0  0  0  0  0
    0.9015    0.6691    0.0000 C   0  0  0  0  0  0  0  0  0  0  0  0
    0.4154   -0.0000    0.0000 C   0  0  0  0  0  0  0  0  0  0  0  0
   -0.3711    0.2556    0.0000 O   0  0  0  0  0  0  0  0  0  0  0  0
   -1.8267    1.3131    0.0000 O   0  0  0  0  0  0  0  0  0  0  0  0
  1  2  1  0  0  0
  2 20  1  0  0  0
  2  3  2  0  0  0
  3  4  1  0  0  0
  4  5  1  0  0  0
  5  6  2  0  0  0
  5  7  1  0  0  0
  7  8  1  0  0  0
  8  9  1  0  0  0
  9 13  1  0  0  0
  9 10  1  0  0  0
 10 11  1  0  0  0
 11 12  1  0  0  0
 12 13  1  0  0  0
  4 14  2  0  0  0
 14 15  1  0  0  0
 15 19  1  0  0  0
 15 16  2  0  0  0
 16 17  1  0  0  0
 17 18  2  0  0  0
 18 19  1  0  0  0
 14 20  1  0  0  0
M  END
>  <Entry>
69

>  <title>
12-749

>  <rigid docking scores>
-17.0441

>  <InChIKey>
KEKVQOZNQRDHGV-UHFFFAOYSA-N

$$$$
atoms 20 bonds 22
dotmatics
mol io
 20 22  0  0  0  0  0  0  0  0999 V2000
    7.4742    0.0367    0.0000 C   0  0  0  0  0  0  0  0  0  0  0  0
    6.7187    0.3731    0.0000 C   0  0  0  0  0  0  0  0  0  0  0  0
    6.6323    1.1956    0.0000 C   0  0  0  0  0  0  0  0  0  0  0  0
    6.0497   -0.1130    0.0000 N   0  0  0  0  0  0  0  0  0  0  0  0
    6.0497   -0.9400    0.0000 C   0  0  0  0  0  0  0  0  0  0  0  0
    5.2632   -1.1956    0.0000 C   0  0  0  0  0  0  0  0  0  0  0  0
    4.7771   -0.5265    0.0000 C   0  0  0  0  0  0  0  0  0  0  0  0
    3.9501   -0.5265    0.0000 N   0  0  0  0  0  0  0  0  0  0  0  0
    3.5366    0.1897    0.0000 C   0  0  0  0  0  0  0  0  0  0  0  0
    3.9501    0.9059    0.0000 O   0  0  0  0  0  0  0  0  0  0  0  0
    2.7096    0.1897    0.0000 C   0  0  0  0  0  0  0  0  0  0  0  0
    2.2185   -0.4788    0.0000 C   0  0  0  0  0  0  0  0  0  0  0  0
    1.4317   -0.2244    0.0000 C   0  0  0  0  0  0  0  0  0  0  0  0
    0.7158   -0.6386    0.0000 C   0  0  0  0  0  0  0  0  0  0  0  0
    0.0000   -0.2244    0.0000 C   0  0  0  0  0  0  0  0  0  0  0  0
    0.0000    0.6038    0.0000 C   0  0  0  0  0  0  0  0  0  0  0  0
    0.7158    1.0179    0.0000 C   0  0  0  0  0  0  0  0  0  0  0  0
    1.4317    0.6038    0.0000 C   0  0  0  0  0  0  0  0  0  0  0  0
    2.2185    0.8582    0.0000 O   0  0  0  0  0  0  0  0  0  0  0  0
    5.2632    0.1426    0.0000 C   0  0  0  0  0  0  0  0  0  0  0  0
  1  2  1  0  0  0
  2  3  1  0  0  0
  2  4  1  0  0  0
  4 20  1  0  0  0
  4  5  1  0  0  0
  5  6  1  0  0  0
  6  7  1  0  0  0
  7  8  1  0  0  0
  8  9  1  0  0  0
  9 10  2  0  0  0
  9 11  1  0  0  0
 11 19  1  0  0  0
 11 12  2  0  0  0
 12 13  1  0  0  0
 13 18  1  0  0  0
 13 14  2  0  0  0
 14 15  1  0  0  0
 15 16  2  0  0  0
 16 17  1  0  0  0
 17 18  2  0  0  0
 18 19  1  0  0  0
  7 20  1  0  0  0
M  END
>  <Entry>
70

>  <title>
12-823

>  <rigid docking scores>
-16.3566

>  <InChIKey>
GUMOXARSWQKITR-UHFFFAOYSA-N

$$$$
atoms 19 bonds 20
dotmatics
mol io
 19 20  0  0  0  0  0  0  0  0999 V2000
   -2.9015    4.3294    0.0000 C   0  0  0  0  0  0  0  0  0  0  0  0
   -2.4880    3.6132    0.0000 C   0  0  0  0  0  0  0  0  0  0  0  0
   -1.6610    3.6132    0.0000 N   0  0  0  0  0  0  0  0  0  0  0  0
   -1.2475    2.8970    0.0000 C   0  0  0  0  0  0  0  0  0  0  0  0
   -1.6610    2.1808    0.0000 O   0  0  0  0  0  0  0  0  0  0  0  0
   -0.4205    2.8970    0.0000 C   0  0  0  0  0  0  0  0  0  0  0  0
   -0.0617    3.6421    0.0000 C   0  0  0  0  0  0  0  0  0  0  0  0
    0.7445    3.8261    0.0000 C   0  0  0  0  0  0  0  0  0  0  0  0
    1.3911    3.3105    0.0000 C   0  0  0  0  0  0  0  0  0  0  0  0
    1.3911    2.4835    0.0000 N   0  0  0  0  0  0  0  0  0  0  0  0
    2.1362    2.1247    0.0000 C   0  0  0  0  0  0  0  0  0  0  0  0
    2.8195    2.5905    0.0000 O   0  0  0  0  0  0  0  0  0  0  0  0
    2.1980    1.3000    0.0000 C   0  0  0  0  0  0  0  0  0  0  0  0
    2.9015    0.8652    0.0000 C   0  0  0  0  0  0  0  0  0  0  0  0
    2.7055    0.0618    0.0000 C   0  0  0  0  0  0  0  0  0  0  0  0
    1.8808   -0.0000    0.0000 S   0  0  0  0  0  0  0  0  0  0  0  0
    1.5672    0.7652    0.0000 C   0  0  0  0  0  0  0  0  0  0  0  0
    0.7445    1.9678    0.0000 C   0  0  0  0  0  0  0  0  0  0  0  0
   -0.0617    2.1519    0.0000 C   0  0  0  0  0  0  0  0  0  0  0  0
  1  2  1  0  0  0
  2  3  1  0  0  0
  3  4  1  0  0  0
  4  5  2  0  0  0
  4  6  1  0  0  0
  6 19  1  0  0  0
  6  7  1  0  0  0
  7  8  1  0  0  0
  8  9  1  0  0  0
  9 10  1  0  0  0
 10 11  1  0  0  0
 11 12  2  0  0  0
 11 13  1  0  0  0
 13 17  2  0  0  0
 13 14  1  0  0  0
 14 15  2  0  0  0
 15 16  1  0  0  0
 16 17  1  0  0  0
 10 18  1  0  0  0
 18 19  1  0  0  0
M  END
>  <Entry>
71

>  <title>
12-897

>  <rigid docking scores>
-18.3302

>  <InChIKey>
GOPOBBRAYHUXQV-UHFFFAOYSA-N

$$$$
atoms 19 bonds 21
dotmatics
mol io
 19 21  0  0  0  0  0  0  0  0999 V2000
    4.5392    0.6438    0.0000 C   0  0  0  0  0  0  0  0  0  0  0  0
    4.5392   -0.1832    0.0000 C   0  0  0  0  0  0  0  0  0  0  0  0
    5.2554   -0.5967    0.0000 C   0  0  0  0  0  0  0  0  0  0  0  0
    5.2554   -1.4237    0.0000 C   0  0  0  0  0  0  0  0  0  0  0  0
    4.5392   -1.8372    0.0000 C   0  0  0  0  0  0  0  0  0  0  0  0
    3.8230   -1.4237    0.0000 N   0  0  0  0  0  0  0  0  0  0  0  0
    3.1068   -1.8372    0.0000 C   0  0  0  0  0  0  0  0  0  0  0  0
    2.3906   -1.4237    0.0000 C   0  0  0  0  0  0  0  0  0  0  0  0
    1.6351   -1.7601    0.0000 C   0  0  0  0  0  0  0  0  0  0  0  0
    1.0817   -1.1455    0.0000 O   0  0  0  0  0  0  0  0  0  0  0  0
    1.4952   -0.4293    0.0000 C   0  0  0  0  0  0  0  0  0  0  0  0
    1.1588    0.3262    0.0000 C   0  0  0  0  0  0  0  0  0  0  0  0
    0.3364    0.4127    0.0000 C   0  0  0  0  0  0  0  0  0  0  0  0
    0.0000    1.1682    0.0000 C   0  0  0  0  0  0  0  0  0  0  0  0
    0.4861    1.8372    0.0000 C   0  0  0  0  0  0  0  0  0  0  0  0
    1.3086    1.7508    0.0000 N   0  0  0  0  0  0  0  0  0  0  0  0
    1.6449    0.9953    0.0000 C   0  0  0  0  0  0  0  0  0  0  0  0
    2.3041   -0.6012    0.0000 N   0  0  0  0  0  0  0  0  0  0  0  0
    3.8230   -0.5967    0.0000 C   0  0  0  0  0  0  0  0  0  0  0  0
  1  2  1  0  0  0
  2 19  1  0  0  0
  2  3  1  0  0  0
  3  4  1  0  0  0
  4  5  1  0  0  0
  5  6  1  0  0  0
  6  7  1  0  0  0
  7  8  1  0  0  0
  8 18  1  0  0  0
  8  9  2  0  0  0
  9 10  1  0  0  0
 10 11  1  0  0  0
 11 12  1  0  0  0
 12 17  1  0  0  0
 12 13  2  0  0  0
 13 14  1  0  0  0
 14 15  2  0  0  0
 15 16  1  0  0  0
 16 17  2  0  0  0
 11 18  2  0  0  0
  6 19  1  0  0  0
M  END
>  <Entry>
72

>  <title>
12-944

>  <rigid docking scores>
-19.5109

>  <InChIKey>
WMXHNLMCNSBVHD-UHFFFAOYSA-N

$$$$
atoms 19 bonds 21
dotmatics
mol io
 19 21  0  0  0  0  0  0  0  0999 V2000
    0.3667    2.1015    0.0000 C   0  0  0  0  0  0  0  0  0  0  0  0
    1.1937    2.1015    0.0000 C   0  0  0  0  0  0  0  0  0  0  0  0
    1.6072    2.8177    0.0000 C   0  0  0  0  0  0  0  0  0  0  0  0
    2.4342    2.8177    0.0000 C   0  0  0  0  0  0  0  0  0  0  0  0
    2.8477    2.1015    0.0000 C   0  0  0  0  0  0  0  0  0  0  0  0
    2.4342    1.3853    0.0000 C   0  0  0  0  0  0  0  0  0  0  0  0
    1.6072    1.3853    0.0000 N   0  0  0  0  0  0  0  0  0  0  0  0
    1.1937    0.6691    0.0000 C   0  0  0  0  0  0  0  0  0  0  0  0
    0.3667    0.6691    0.0000 C   0  0  0  0  0  0  0  0  0  0  0  0
   -0.1194    0.0000    0.0000 C   0  0  0  0  0  0  0  0  0  0  0  0
   -0.9060    0.2556    0.0000 S   0  0  0  0  0  0  0  0  0  0  0  0
   -0.9060    1.0826    0.0000 C   0  0  0  0  0  0  0  0  0  0  0  0
   -1.5750    1.5687    0.0000 C   0  0  0  0  0  0  0  0  0  0  0  0
   -2.3616    1.3131    0.0000 C   0  0  0  0  0  0  0  0  0  0  0  0
   -2.8477    1.9822    0.0000 C   0  0  0  0  0  0  0  0  0  0  0  0
   -2.3616    2.6512    0.0000 N   0  0  0  0  0  0  0  0  0  0  0  0
   -2.6171    3.4377    0.0000 C   0  0  0  0  0  0  0  0  0  0  0  0
   -1.5750    2.3957    0.0000 N   0  0  0  0  0  0  0  0  0  0  0  0
   -0.1194    1.3381    0.0000 N   0  0  0  0  0  0  0  0  0  0  0  0
  1  2  1  0  0  0
  2  7  1  0  0  0
  2  3  1  0  0  0
  3  4  1  0  0  0
  4  5  1  0  0  0
  5  6  1  0  0  0
  6  7  1  0  0  0
  7  8  1  0  0  0
  8  9  1  0  0  0
  9 19  1  0  0  0
  9 10  2  0  0  0
 10 11  1  0  0  0
 11 12  1  0  0  0
 12 13  1  0  0  0
 13 18  2  0  0  0
 13 14  1  0  0  0
 14 15  2  0  0  0
 15 16  1  0  0  0
 16 17  1  0  0  0
 16 18  1  0  0  0
 12 19  2  0  0  0
M  END
>  <Entry>
73

>  <title>
12-977

>  <rigid docking scores>
-15.8667

>  <InChIKey>
UDPWCZCYGPSDRN-UHFFFAOYSA-N

$$$$
atoms 20 bonds 22
dotmatics
mol io
 20 22  0  0  0  0  0  0  0  0999 V2000
   -2.4264    2.2082    0.0000 O   0  0  0  0  0  0  0  0  0  0  0  0
   -2.0129    2.9244    0.0000 C   0  0  0  0  0  0  0  0  0  0  0  0
   -1.1859    2.9244    0.0000 N   0  0  0  0  0  0  0  0  0  0  0  0
   -0.7724    2.2082    0.0000 C   0  0  0  0  0  0  0  0  0  0  0  0
    0.0546    2.2082    0.0000 C   0  0  0  0  0  0  0  0  0  0  0  0
    0.5407    2.8772    0.0000 C   0  0  0  0  0  0  0  0  0  0  0  0
    1.3272    2.6217    0.0000 C   0  0  0  0  0  0  0  0  0  0  0  0
    1.3272    1.7947    0.0000 N   0  0  0  0  0  0  0  0  0  0  0  0
    1.9963    1.3086    0.0000 C   0  0  0  0  0  0  0  0  0  0  0  0
    2.7518    1.6449    0.0000 C   0  0  0  0  0  0  0  0  0  0  0  0
    3.4208    1.1588    0.0000 C   0  0  0  0  0  0  0  0  0  0  0  0
    3.3344    0.3364    0.0000 C   0  0  0  0  0  0  0  0  0  0  0  0
    2.5789   -0.0000    0.0000 C   0  0  0  0  0  0  0  0  0  0  0  0
    1.9098    0.4861    0.0000 C   0  0  0  0  0  0  0  0  0  0  0  0
    0.5407    1.5391    0.0000 N   0  0  0  0  0  0  0  0  0  0  0  0
   -2.4264    3.6406    0.0000 C   0  0  0  0  0  0  0  0  0  0  0  0
   -3.2489    3.7270    0.0000 C   0  0  0  0  0  0  0  0  0  0  0  0
   -3.4208    4.5359    0.0000 C   0  0  0  0  0  0  0  0  0  0  0  0
   -2.7046    4.9494    0.0000 C   0  0  0  0  0  0  0  0  0  0  0  0
   -2.0900    4.3961    0.0000 C   0  0  0  0  0  0  0  0  0  0  0  0
  1  2  2  0  0  0
  2  3  1  0  0  0
  3  4  1  0  0  0
  4  5  1  0  0  0
  5 15  2  0  0  0
  5  6  1  0  0  0
  6  7  2  0  0  0
  7  8  1  0  0  0
  8  9  1  0  0  0
  9 14  1  0  0  0
  9 10  2  0  0  0
 10 11  1  0  0  0
 11 12  2  0  0  0
 12 13  1  0  0  0
 13 14  2  0  0  0
  8 15  1  0  0  0
  2 16  1  0  0  0
 16 20  1  0  0  0
 16 17  1  0  0  0
 17 18  1  0  0  0
 18 19  1  0  0  0
 19 20  1  0  0  0
M  END
>  <Entry>
74

>  <title>
12-998

>  <rigid docking scores>
-15.485

>  <InChIKey>
ZVIGNSLGJNYJTR-UHFFFAOYSA-N

$$$$
atoms 22 bonds 25
dotmatics
mol io
 22 25  0  0  0  0  0  0  0  0999 V2000
    3.2531    3.4814    0.0000 C   0  0  0  0  0  0  0  0  0  0  0  0
    3.5705    2.7177    0.0000 N   0  0  0  0  0  0  0  0  0  0  0  0
    3.7705    1.9059    0.0000 C   0  0  0  0  0  0  0  0  0  0  0  0
    4.5346    1.5895    0.0000 C   0  0  0  0  0  0  0  0  0  0  0  0
    4.6420    1.9924    0.0000 C   0  0  0  0  0  0  0  0  0  0  0  0
    3.8779    2.3088    0.0000 C   0  0  0  0  0  0  0  0  0  0  0  0
    2.7915    1.9715    0.0000 C   0  0  0  0  0  0  0  0  0  0  0  0
    2.7497    1.5566    0.0000 C   0  0  0  0  0  0  0  0  0  0  0  0
    2.0348    1.1409    0.0000 N   0  0  0  0  0  0  0  0  0  0  0  0
    2.0374    0.3139    0.0000 C   0  0  0  0  0  0  0  0  0  0  0  0
    2.7549   -0.0974    0.0000 O   0  0  0  0  0  0  0  0  0  0  0  0
    1.3225   -0.1019    0.0000 N   0  0  0  0  0  0  0  0  0  0  0  0
    1.3251   -0.9289    0.0000 C   0  0  0  0  0  0  0  0  0  0  0  0
    2.0426   -1.3401    0.0000 C   0  0  0  0  0  0  0  0  0  0  0  0
    2.0452   -2.1671    0.0000 C   0  0  0  0  0  0  0  0  0  0  0  0
    1.3303   -2.5829    0.0000 C   0  0  0  0  0  0  0  0  0  0  0  0
    1.1609   -3.3923    0.0000 S   0  0  0  0  0  0  0  0  0  0  0  0
    0.3388   -3.4814    0.0000 N   0  0  0  0  0  0  0  0  0  0  0  0
    0.0000   -2.7269    0.0000 N   0  0  0  0  0  0  0  0  0  0  0  0
    0.6128   -2.1716    0.0000 C   0  0  0  0  0  0  0  0  0  0  0  0
    0.6102   -1.3446    0.0000 C   0  0  0  0  0  0  0  0  0  0  0  0
    3.1288    1.3865    0.0000 C   0  0  0  0  0  0  0  0  0  0  0  0
  1  2  1  0  0  0
  2  6  1  0  0  0
  2  3  1  0  0  0
  3 22  1  0  0  0
  3  4  1  0  0  0
  4  5  1  0  0  0
  5  6  1  0  0  0
  6  7  1  0  0  0
  7  8  1  0  0  0
  8  9  1  0  0  0
  9 10  1  0  0  0
 10 11  2  0  0  0
 10 12  1  0  0  0
 12 13  1  0  0  0
 13 21  1  0  0  0
 13 14  2  0  0  0
 14 15  1  0  0  0
 15 16  2  0  0  0
 16 20  1  0  0  0
 16 17  1  0  0  0
 17 18  1  0  0  0
 18 19  2  0  0  0
 19 20  1  0  0  0
 20 21  2  0  0  0
  8 22  1  0  0  0
M  END
>  <Entry>
75

>  <title>
12-1544

>  <rigid docking scores>
-17.8406

>  <InChIKey>
VHLINYSBCAXWSP-UHFFFAOYSA-N

$$$$
atoms 21 bonds 23
dotmatics
mol io
 21 23  0  0  0  0  0  0  0  0999 V2000
    0.0000   -2.6890    0.0000 C   0  0  0  0  0  0  0  0  0  0  0  0
    0.7162   -2.2755    0.0000 N   0  0  0  0  0  0  0  0  0  0  0  0
    0.7162   -1.4485    0.0000 C   0  0  0  0  0  0  0  0  0  0  0  0
    1.4324   -1.0350    0.0000 C   0  0  0  0  0  0  0  0  0  0  0  0
    2.1486   -1.4485    0.0000 C   0  0  0  0  0  0  0  0  0  0  0  0
    2.8648   -1.0350    0.0000 N   0  0  0  0  0  0  0  0  0  0  0  0
    2.8648   -0.2080    0.0000 C   0  0  0  0  0  0  0  0  0  0  0  0
    2.1486    0.2055    0.0000 O   0  0  0  0  0  0  0  0  0  0  0  0
    3.5810    0.2055    0.0000 N   0  0  0  0  0  0  0  0  0  0  0  0
    3.5810    1.0325    0.0000 C   0  0  0  0  0  0  0  0  0  0  0  0
    2.8652    1.4466    0.0000 C   0  0  0  0  0  0  0  0  0  0  0  0
    2.8652    2.2749    0.0000 C   0  0  0  0  0  0  0  0  0  0  0  0
    3.5810    2.6890    0.0000 C   0  0  0  0  0  0  0  0  0  0  0  0
    4.2969    2.2749    0.0000 C   0  0  0  0  0  0  0  0  0  0  0  0
    5.0186    2.6890    0.0000 N   0  0  0  0  0  0  0  0  0  0  0  0
    5.7345    2.2749    0.0000 C   0  0  0  0  0  0  0  0  0  0  0  0
    5.7345    1.4466    0.0000 C   0  0  0  0  0  0  0  0  0  0  0  0
    5.0186    1.0325    0.0000 C   0  0  0  0  0  0  0  0  0  0  0  0
    4.2969    1.4466    0.0000 C   0  0  0  0  0  0  0  0  0  0  0  0
    2.1486   -2.2755    0.0000 C   0  0  0  0  0  0  0  0  0  0  0  0
    1.4324   -2.6890    0.0000 C   0  0  0  0  0  0  0  0  0  0  0  0
  1  2  1  0  0  0
  2 21  1  0  0  0
  2  3  1  0  0  0
  3  4  1  0  0  0
  4  5  1  0  0  0
  5  6  1  0  0  0
  6  7  1  0  0  0
  7  8  2  0  0  0
  7  9  1  0  0  0
  9 10  1  0  0  0
 10 19  1  0  0  0
 10 11  2  0  0  0
 11 12  1  0  0  0
 12 13  2  0  0  0
 13 14  1  0  0  0
 14 19  1  0  0  0
 14 15  2  0  0  0
 15 16  1  0  0  0
 16 17  2  0  0  0
 17 18  1  0  0  0
 18 19  2  0  0  0
  5 20  1  0  0  0
 20 21  1  0  0  0
M  END
>  <Entry>
76

>  <title>
12-1860

>  <rigid docking scores>
-18.9125

>  <InChIKey>
OYIFPIGSZYGGPI-UHFFFAOYSA-N

$$$$
atoms 21 bonds 23
dotmatics
mol io
 21 23  0  0  0  0  0  0  0  0999 V2000
   -0.6494    2.8880    0.0000 O   0  0  0  0  0  0  0  0  0  0  0  0
   -1.0629    2.1718    0.0000 C   0  0  0  0  0  0  0  0  0  0  0  0
   -0.6494    1.4556    0.0000 C   0  0  0  0  0  0  0  0  0  0  0  0
    0.1776    1.4556    0.0000 N   0  0  0  0  0  0  0  0  0  0  0  0
    0.6637    2.1246    0.0000 N   0  0  0  0  0  0  0  0  0  0  0  0
    1.4503    1.8691    0.0000 C   0  0  0  0  0  0  0  0  0  0  0  0
    2.1193    2.3552    0.0000 C   0  0  0  0  0  0  0  0  0  0  0  0
    2.0329    3.1776    0.0000 C   0  0  0  0  0  0  0  0  0  0  0  0
    2.7019    3.6637    0.0000 C   0  0  0  0  0  0  0  0  0  0  0  0
    3.4574    3.3274    0.0000 C   0  0  0  0  0  0  0  0  0  0  0  0
    3.5439    2.5049    0.0000 C   0  0  0  0  0  0  0  0  0  0  0  0
    2.8748    2.0188    0.0000 C   0  0  0  0  0  0  0  0  0  0  0  0
    1.4503    1.0421    0.0000 O   0  0  0  0  0  0  0  0  0  0  0  0
    0.6637    0.7865    0.0000 C   0  0  0  0  0  0  0  0  0  0  0  0
    0.4082   -0.0000    0.0000 O   0  0  0  0  0  0  0  0  0  0  0  0
   -1.8899    2.1718    0.0000 N   0  0  0  0  0  0  0  0  0  0  0  0
   -2.3034    1.4556    0.0000 C   0  0  0  0  0  0  0  0  0  0  0  0
   -3.1304    1.4556    0.0000 C   0  0  0  0  0  0  0  0  0  0  0  0
   -3.5439    2.1718    0.0000 C   0  0  0  0  0  0  0  0  0  0  0  0
   -3.1304    2.8880    0.0000 C   0  0  0  0  0  0  0  0  0  0  0  0
   -2.3034    2.8880    0.0000 C   0  0  0  0  0  0  0  0  0  0  0  0
  1  2  2  0  0  0
  2  3  1  0  0  0
  3  4  1  0  0  0
  4 14  1  0  0  0
  4  5  1  0  0  0
  5  6  2  0  0  0
  6  7  1  0  0  0
  7 12  1  0  0  0
  7  8  2  0  0  0
  8  9  1  0  0  0
  9 10  2  0  0  0
 10 11  1  0  0  0
 11 12  2  0  0  0
  6 13  1  0  0  0
 13 14  1  0  0  0
 14 15  2  0  0  0
  2 16  1  0  0  0
 16 21  1  0  0  0
 16 17  1  0  0  0
 17 18  1  0  0  0
 18 19  1  0  0  0
 19 20  1  0  0  0
 20 21  1  0  0  0
M  END
>  <Entry>
77

>  <title>
12-2081

>  <rigid docking scores>
-15.9508

>  <InChIKey>
CMAHVHPZDIVJSX-UHFFFAOYSA-N

$$$$
atoms 21 bonds 24
dotmatics
mol io
 21 24  0  0  0  0  0  0  0  0999 V2000
    4.8578   -0.6199    0.0000 C   0  0  0  0  0  0  0  0  0  0  0  0
    4.3668   -1.2885    0.0000 C   0  0  0  0  0  0  0  0  0  0  0  0
    3.5799   -1.0341    0.0000 C   0  0  0  0  0  0  0  0  0  0  0  0
    2.8641   -1.4482    0.0000 N   0  0  0  0  0  0  0  0  0  0  0  0
    2.1482   -1.0341    0.0000 C   0  0  0  0  0  0  0  0  0  0  0  0
    1.4324   -1.4482    0.0000 N   0  0  0  0  0  0  0  0  0  0  0  0
    1.4331   -2.2752    0.0000 C   0  0  0  0  0  0  0  0  0  0  0  0
    0.7173   -2.6893    0.0000 C   0  0  0  0  0  0  0  0  0  0  0  0
    0.0007   -2.2764    0.0000 C   0  0  0  0  0  0  0  0  0  0  0  0
    0.0000   -1.4494    0.0000 C   0  0  0  0  0  0  0  0  0  0  0  0
    0.7158   -1.0353    0.0000 C   0  0  0  0  0  0  0  0  0  0  0  0
    2.1482   -0.2058    0.0000 N   0  0  0  0  0  0  0  0  0  0  0  0
    2.8641    0.2083    0.0000 C   0  0  0  0  0  0  0  0  0  0  0  0
    2.8641    1.0353    0.0000 N   0  0  0  0  0  0  0  0  0  0  0  0
    2.1479    1.4488    0.0000 C   0  0  0  0  0  0  0  0  0  0  0  0
    2.1479    2.2758    0.0000 C   0  0  0  0  0  0  0  0  0  0  0  0
    2.8641    2.6893    0.0000 O   0  0  0  0  0  0  0  0  0  0  0  0
    3.5803    2.2758    0.0000 C   0  0  0  0  0  0  0  0  0  0  0  0
    3.5803    1.4488    0.0000 C   0  0  0  0  0  0  0  0  0  0  0  0
    3.5799   -0.2058    0.0000 C   0  0  0  0  0  0  0  0  0  0  0  0
    4.3668    0.0486    0.0000 S   0  0  0  0  0  0  0  0  0  0  0  0
  1 21  1  0  0  0
  1  2  2  0  0  0
  2  3  1  0  0  0
  3 20  1  0  0  0
  3  4  2  0  0  0
  4  5  1  0  0  0
  5  6  1  0  0  0
  6 11  1  0  0  0
  6  7  1  0  0  0
  7  8  1  0  0  0
  8  9  1  0  0  0
  9 10  1  0  0  0
 10 11  1  0  0  0
  5 12  2  0  0  0
 12 13  1  0  0  0
 13 14  1  0  0  0
 14 19  1  0  0  0
 14 15  1  0  0  0
 15 16  1  0  0  0
 16 17  1  0  0  0
 17 18  1  0  0  0
 18 19  1  0  0  0
 13 20  2  0  0  0
 20 21  1  0  0  0
M  END
>  <Entry>
78

>  <title>
12-2136

>  <rigid docking scores>
-17.2

>  <InChIKey>
LBKJGSIEGPJEEZ-UHFFFAOYSA-N

$$$$
atoms 19 bonds 21
dotmatics
mol io
 19 21  0  0  0  0  0  0  0  0999 V2000
   -1.5864    3.4575    0.0000 O   0  0  0  0  0  0  0  0  0  0  0  0
   -0.7594    3.4575    0.0000 C   0  0  0  0  0  0  0  0  0  0  0  0
   -0.3459    4.1737    0.0000 C   0  0  0  0  0  0  0  0  0  0  0  0
    0.4811    4.1737    0.0000 C   0  0  0  0  0  0  0  0  0  0  0  0
    0.8946    3.4575    0.0000 C   0  0  0  0  0  0  0  0  0  0  0  0
    1.7216    3.4575    0.0000 C   0  0  0  0  0  0  0  0  0  0  0  0
    2.2077    4.1265    0.0000 C   0  0  0  0  0  0  0  0  0  0  0  0
    2.9943    3.8710    0.0000 C   0  0  0  0  0  0  0  0  0  0  0  0
    2.9943    3.0440    0.0000 C   0  0  0  0  0  0  0  0  0  0  0  0
    2.2077    2.7884    0.0000 S   0  0  0  0  0  0  0  0  0  0  0  0
    0.4811    2.7413    0.0000 N   0  0  0  0  0  0  0  0  0  0  0  0
   -0.3459    2.7413    0.0000 N   0  0  0  0  0  0  0  0  0  0  0  0
   -0.7594    2.0251    0.0000 C   0  0  0  0  0  0  0  0  0  0  0  0
   -1.5864    2.0251    0.0000 C   0  0  0  0  0  0  0  0  0  0  0  0
   -1.9999    1.3089    0.0000 N   0  0  0  0  0  0  0  0  0  0  0  0
   -1.6635    0.5534    0.0000 C   0  0  0  0  0  0  0  0  0  0  0  0
   -2.2781    0.0000    0.0000 C   0  0  0  0  0  0  0  0  0  0  0  0
   -2.9943    0.4135    0.0000 C   0  0  0  0  0  0  0  0  0  0  0  0
   -2.8223    1.2224    0.0000 C   0  0  0  0  0  0  0  0  0  0  0  0
  1  2  2  0  0  0
  2 12  1  0  0  0
  2  3  1  0  0  0
  3  4  2  0  0  0
  4  5  1  0  0  0
  5  6  1  0  0  0
  6 10  1  0  0  0
  6  7  2  0  0  0
  7  8  1  0  0  0
  8  9  2  0  0  0
  9 10  1  0  0  0
  5 11  2  0  0  0
 11 12  1  0  0  0
 12 13  1  0  0  0
 13 14  1  0  0  0
 14 15  1  0  0  0
 15 19  1  0  0  0
 15 16  1  0  0  0
 16 17  1  0  0  0
 17 18  1  0  0  0
 18 19  1  0  0  0
M  END
>  <Entry>
79

>  <title>
12-2217

>  <rigid docking scores>
-19.7533

>  <InChIKey>
RIYKPWSHJIWSGX-UHFFFAOYSA-N

$$$$
atoms 22 bonds 25
dotmatics
mol io
 22 25  0  0  0  0  0  0  0  0999 V2000
    0.0000    0.4682    0.0000 C   0  0  0  0  0  0  0  0  0  0  0  0
    0.4873    1.1364    0.0000 C   0  0  0  0  0  0  0  0  0  0  0  0
    1.3096    1.0484    0.0000 C   0  0  0  0  0  0  0  0  0  0  0  0
    1.6446    0.2923    0.0000 C   0  0  0  0  0  0  0  0  0  0  0  0
    2.4669    0.2044    0.0000 C   0  0  0  0  0  0  0  0  0  0  0  0
    2.9542    0.8725    0.0000 N   0  0  0  0  0  0  0  0  0  0  0  0
    3.7766    0.7846    0.0000 C   0  0  0  0  0  0  0  0  0  0  0  0
    4.2639    1.4528    0.0000 C   0  0  0  0  0  0  0  0  0  0  0  0
    5.0897    1.4528    0.0000 C   0  0  0  0  0  0  0  0  0  0  0  0
    5.3433    2.2373    0.0000 C   0  0  0  0  0  0  0  0  0  0  0  0
    4.6768    2.7268    0.0000 N   0  0  0  0  0  0  0  0  0  0  0  0
    4.0102    2.2373    0.0000 N   0  0  0  0  0  0  0  0  0  0  0  0
    4.1116    0.0285    0.0000 C   0  0  0  0  0  0  0  0  0  0  0  0
    3.6242   -0.6397    0.0000 C   0  0  0  0  0  0  0  0  0  0  0  0
    3.9592   -1.3958    0.0000 N   0  0  0  0  0  0  0  0  0  0  0  0
    4.7679   -1.5692    0.0000 C   0  0  0  0  0  0  0  0  0  0  0  0
    4.8528   -2.3918    0.0000 C   0  0  0  0  0  0  0  0  0  0  0  0
    4.0967   -2.7268    0.0000 C   0  0  0  0  0  0  0  0  0  0  0  0
    3.5444   -2.1112    0.0000 C   0  0  0  0  0  0  0  0  0  0  0  0
    2.8019   -0.5517    0.0000 N   0  0  0  0  0  0  0  0  0  0  0  0
    1.1573   -0.3759    0.0000 N   0  0  0  0  0  0  0  0  0  0  0  0
    0.3350   -0.2879    0.0000 C   0  0  0  0  0  0  0  0  0  0  0  0
  1 22  1  0  0  0
  1  2  2  0  0  0
  2  3  1  0  0  0
  3  4  2  0  0  0
  4  5  1  0  0  0
  5 20  1  0  0  0
  5  6  2  0  0  0
  6  7  1  0  0  0
  7  8  1  0  0  0
  8 12  2  0  0  0
  8  9  1  0  0  0
  9 10  2  0  0  0
 10 11  1  0  0  0
 11 12  1  0  0  0
  7 13  2  0  0  0
 13 14  1  0  0  0
 14 15  1  0  0  0
 15 19  1  0  0  0
 15 16  1  0  0  0
 16 17  1  0  0  0
 17 18  1  0  0  0
 18 19  1  0  0  0
 14 20  2  0  0  0
  4 21  1  0  0  0
 21 22  2  0  0  0
M  END
>  <Entry>
80

>  <title>
12-2232

>  <rigid docking scores>
-16.6004

>  <InChIKey>
VDSUPUXFWIHHMT-UHFFFAOYSA-N

$$$$
atoms 21 bonds 23
dotmatics
mol io
 21 23  0  0  0  0  0  0  0  0999 V2000
   -2.1541    1.9822    0.0000 O   0  0  0  0  0  0  0  0  0  0  0  0
   -1.7406    2.6984    0.0000 C   0  0  0  0  0  0  0  0  0  0  0  0
   -0.9136    2.6984    0.0000 C   0  0  0  0  0  0  0  0  0  0  0  0
   -0.5001    1.9822    0.0000 C   0  0  0  0  0  0  0  0  0  0  0  0
    0.3269    1.9822    0.0000 C   0  0  0  0  0  0  0  0  0  0  0  0
    0.8130    2.6512    0.0000 N   0  0  0  0  0  0  0  0  0  0  0  0
    1.5996    2.3957    0.0000 N   0  0  0  0  0  0  0  0  0  0  0  0
    1.5996    1.5687    0.0000 C   0  0  0  0  0  0  0  0  0  0  0  0
    2.2686    1.0826    0.0000 C   0  0  0  0  0  0  0  0  0  0  0  0
    3.0551    1.3381    0.0000 C   0  0  0  0  0  0  0  0  0  0  0  0
    3.5412    0.6691    0.0000 C   0  0  0  0  0  0  0  0  0  0  0  0
    3.0551   -0.0000    0.0000 C   0  0  0  0  0  0  0  0  0  0  0  0
    2.2686    0.2556    0.0000 S   0  0  0  0  0  0  0  0  0  0  0  0
    0.8130    1.3131    0.0000 O   0  0  0  0  0  0  0  0  0  0  0  0
   -2.1541    3.4146    0.0000 N   0  0  0  0  0  0  0  0  0  0  0  0
   -2.9787    3.3528    0.0000 C   0  0  0  0  0  0  0  0  0  0  0  0
   -3.5412    3.9590    0.0000 C   0  0  0  0  0  0  0  0  0  0  0  0
   -3.4180    4.7768    0.0000 C   0  0  0  0  0  0  0  0  0  0  0  0
   -2.7018    5.1903    0.0000 O   0  0  0  0  0  0  0  0  0  0  0  0
   -1.9320    4.8881    0.0000 C   0  0  0  0  0  0  0  0  0  0  0  0
   -1.6882    4.0979    0.0000 C   0  0  0  0  0  0  0  0  0  0  0  0
  1  2  2  0  0  0
  2  3  1  0  0  0
  3  4  1  0  0  0
  4  5  1  0  0  0
  5 14  1  0  0  0
  5  6  2  0  0  0
  6  7  1  0  0  0
  7  8  2  0  0  0
  8  9  1  0  0  0
  9 13  1  0  0  0
  9 10  2  0  0  0
 10 11  1  0  0  0
 11 12  2  0  0  0
 12 13  1  0  0  0
  8 14  1  0  0  0
  2 15  1  0  0  0
 15 21  1  0  0  0
 15 16  1  0  0  0
 16 17  1  0  0  0
 17 18  1  0  0  0
 18 19  1  0  0  0
 19 20  1  0  0  0
 20 21  1  0  0  0
M  END
>  <Entry>
81

>  <title>
12-2377

>  <rigid docking scores>
-15.8878

>  <InChIKey>
KTVUWDNMKLYHHX-UHFFFAOYSA-N

$$$$
atoms 20 bonds 22
dotmatics
mol io
 20 22  0  0  0  0  0  0  0  0999 V2000
   -0.8401    2.8880    0.0000 O   0  0  0  0  0  0  0  0  0  0  0  0
   -1.2536    2.1718    0.0000 C   0  0  0  0  0  0  0  0  0  0  0  0
   -0.8401    1.4556    0.0000 C   0  0  0  0  0  0  0  0  0  0  0  0
   -0.0131    1.4556    0.0000 N   0  0  0  0  0  0  0  0  0  0  0  0
    0.4730    2.1246    0.0000 N   0  0  0  0  0  0  0  0  0  0  0  0
    1.2596    1.8691    0.0000 C   0  0  0  0  0  0  0  0  0  0  0  0
    1.9286    2.3552    0.0000 C   0  0  0  0  0  0  0  0  0  0  0  0
    1.8422    3.1776    0.0000 C   0  0  0  0  0  0  0  0  0  0  0  0
    2.5112    3.6637    0.0000 C   0  0  0  0  0  0  0  0  0  0  0  0
    3.2667    3.3274    0.0000 C   0  0  0  0  0  0  0  0  0  0  0  0
    3.3532    2.5049    0.0000 C   0  0  0  0  0  0  0  0  0  0  0  0
    2.6841    2.0188    0.0000 C   0  0  0  0  0  0  0  0  0  0  0  0
    1.2596    1.0421    0.0000 S   0  0  0  0  0  0  0  0  0  0  0  0
    0.4730    0.7865    0.0000 C   0  0  0  0  0  0  0  0  0  0  0  0
    0.2175   -0.0000    0.0000 O   0  0  0  0  0  0  0  0  0  0  0  0
   -2.0806    2.1718    0.0000 N   0  0  0  0  0  0  0  0  0  0  0  0
   -2.5667    1.5027    0.0000 C   0  0  0  0  0  0  0  0  0  0  0  0
   -3.3532    1.7583    0.0000 C   0  0  0  0  0  0  0  0  0  0  0  0
   -3.3532    2.5853    0.0000 C   0  0  0  0  0  0  0  0  0  0  0  0
   -2.5667    2.8408    0.0000 C   0  0  0  0  0  0  0  0  0  0  0  0
  1  2  2  0  0  0
  2  3  1  0  0  0
  3  4  1  0  0  0
  4 14  1  0  0  0
  4  5  1  0  0  0
  5  6  2  0  0  0
  6  7  1  0  0  0
  7 12  1  0  0  0
  7  8  2  0  0  0
  8  9  1  0  0  0
  9 10  2  0  0  0
 10 11  1  0  0  0
 11 12  2  0  0  0
  6 13  1  0  0  0
 13 14  1  0  0  0
 14 15  2  0  0  0
  2 16  1  0  0  0
 16 20  1  0  0  0
 16 17  1  0  0  0
 17 18  1  0  0  0
 18 19  1  0  0  0
 19 20  1  0  0  0
M  END
>  <Entry>
82

>  <title>
12-2422

>  <rigid docking scores>
-16.4131

>  <InChIKey>
CNIZIGWUJUSBGL-UHFFFAOYSA-N

$$$$
atoms 22 bonds 24
dotmatics
mol io
 22 24  0  0  0  0  0  0  0  0999 V2000
    5.3817    1.4324    0.0000 O   0  0  0  0  0  0  0  0  0  0  0  0
    4.9682    0.7162    0.0000 C   0  0  0  0  0  0  0  0  0  0  0  0
    5.3817    0.0000    0.0000 N   0  0  0  0  0  0  0  0  0  0  0  0
    6.2087    0.0000    0.0000 C   0  0  0  0  0  0  0  0  0  0  0  0
    6.6222    0.7162    0.0000 C   0  0  0  0  0  0  0  0  0  0  0  0
    7.4492    0.7162    0.0000 C   0  0  0  0  0  0  0  0  0  0  0  0
    7.8627    0.0000    0.0000 C   0  0  0  0  0  0  0  0  0  0  0  0
    7.4492   -0.7162    0.0000 C   0  0  0  0  0  0  0  0  0  0  0  0
    6.6222   -0.7162    0.0000 C   0  0  0  0  0  0  0  0  0  0  0  0
    6.2087   -1.4324    0.0000 F   0  0  0  0  0  0  0  0  0  0  0  0
    4.1412    0.7162    0.0000 N   0  0  0  0  0  0  0  0  0  0  0  0
    3.7271    0.0004    0.0000 C   0  0  0  0  0  0  0  0  0  0  0  0
    2.8989    0.0004    0.0000 C   0  0  0  0  0  0  0  0  0  0  0  0
    2.4847    0.7162    0.0000 N   0  0  0  0  0  0  0  0  0  0  0  0
    1.6565    0.7162    0.0000 C   0  0  0  0  0  0  0  0  0  0  0  0
    1.2424    0.0004    0.0000 C   0  0  0  0  0  0  0  0  0  0  0  0
    0.4141    0.0004    0.0000 C   0  0  0  0  0  0  0  0  0  0  0  0
    0.0000    0.7162    0.0000 C   0  0  0  0  0  0  0  0  0  0  0  0
    0.4141    1.4320    0.0000 C   0  0  0  0  0  0  0  0  0  0  0  0
    1.2424    1.4320    0.0000 N   0  0  0  0  0  0  0  0  0  0  0  0
    2.8989    1.4320    0.0000 C   0  0  0  0  0  0  0  0  0  0  0  0
    3.7271    1.4320    0.0000 C   0  0  0  0  0  0  0  0  0  0  0  0
  1  2  2  0  0  0
  2  3  1  0  0  0
  3  4  1  0  0  0
  4  9  1  0  0  0
  4  5  2  0  0  0
  5  6  1  0  0  0
  6  7  2  0  0  0
  7  8  1  0  0  0
  8  9  2  0  0  0
  9 10  1  0  0  0
  2 11  1  0  0  0
 11 22  1  0  0  0
 11 12  1  0  0  0
 12 13  1  0  0  0
 13 14  1  0  0  0
 14 15  1  0  0  0
 15 20  1  0  0  0
 15 16  2  0  0  0
 16 17  1  0  0  0
 17 18  2  0  0  0
 18 19  1  0  0  0
 19 20  2  0  0  0
 14 21  1  0  0  0
 21 22  1  0  0  0
M  END
>  <Entry>
83

>  <title>
12-2447

>  <rigid docking scores>
-15.3388

>  <InChIKey>
VFGDNGDEELDUNT-UHFFFAOYSA-N

>  <ZINC>
ZINC000006698442

>  <eMolecules>
2287403

>  <Pubchem>
6464425

>  <Mcule>
MCULE-2151710797

>  <MolPort>
MolPort-002-105-771

$$$$
atoms 25 bonds 28
dotmatics
mol io
 25 28  0  0  0  0  0  0  0  0999 V2000
    4.3024   -0.6459    0.0000 O   0  0  0  0  0  0  0  0  0  0  0  0
    4.3017    0.1811    0.0000 C   0  0  0  0  0  0  0  0  0  0  0  0
    3.5851    0.5940    0.0000 N   0  0  0  0  0  0  0  0  0  0  0  0
    2.8693    0.1799    0.0000 C   0  0  0  0  0  0  0  0  0  0  0  0
    2.8693   -0.6484    0.0000 C   0  0  0  0  0  0  0  0  0  0  0  0
    2.1534   -1.0625    0.0000 C   0  0  0  0  0  0  0  0  0  0  0  0
    1.4317   -0.6484    0.0000 C   0  0  0  0  0  0  0  0  0  0  0  0
    1.4317    0.1799    0.0000 C   0  0  0  0  0  0  0  0  0  0  0  0
    2.1534    0.5940    0.0000 C   0  0  0  0  0  0  0  0  0  0  0  0
    0.7158    0.5940    0.0000 O   0  0  0  0  0  0  0  0  0  0  0  0
    0.0000    0.1799    0.0000 C   0  0  0  0  0  0  0  0  0  0  0  0
    0.0000   -0.6484    0.0000 C   0  0  0  0  0  0  0  0  0  0  0  0
    0.7158   -1.0625    0.0000 O   0  0  0  0  0  0  0  0  0  0  0  0
    5.0175    0.5952    0.0000 C   0  0  0  0  0  0  0  0  0  0  0  0
    5.1033    1.4178    0.0000 C   0  0  0  0  0  0  0  0  0  0  0  0
    5.9120    1.5904    0.0000 C   0  0  0  0  0  0  0  0  0  0  0  0
    6.3262    0.8746    0.0000 C   0  0  0  0  0  0  0  0  0  0  0  0
    5.7733    0.2595    0.0000 N   0  0  0  0  0  0  0  0  0  0  0  0
    5.9460   -0.5493    0.0000 C   0  0  0  0  0  0  0  0  0  0  0  0
    5.3319   -1.1032    0.0000 O   0  0  0  0  0  0  0  0  0  0  0  0
    6.7327   -0.8041    0.0000 C   0  0  0  0  0  0  0  0  0  0  0  0
    7.4014   -0.3174    0.0000 C   0  0  0  0  0  0  0  0  0  0  0  0
    8.0708   -0.8030    0.0000 C   0  0  0  0  0  0  0  0  0  0  0  0
    7.8160   -1.5897    0.0000 N   0  0  0  0  0  0  0  0  0  0  0  0
    6.9890   -1.5904    0.0000 O   0  0  0  0  0  0  0  0  0  0  0  0
  1  2  2  0  0  0
  2  3  1  0  0  0
  3  4  1  0  0  0
  4  9  1  0  0  0
  4  5  2  0  0  0
  5  6  1  0  0  0
  6  7  2  0  0  0
  7 13  1  0  0  0
  7  8  1  0  0  0
  8  9  2  0  0  0
  8 10  1  0  0  0
 10 11  1  0  0  0
 11 12  1  0  0  0
 12 13  1  0  0  0
  2 14  1  0  0  0
 14 18  1  0  0  0
 14 15  1  0  0  0
 15 16  1  0  0  0
 16 17  1  0  0  0
 17 18  1  0  0  0
 18 19  1  0  0  0
 19 20  2  0  0  0
 19 21  1  0  0  0
 21 25  1  0  0  0
 21 22  2  0  0  0
 22 23  1  0  0  0
 23 24  2  0  0  0
 24 25  1  0  0  0
M  END
>  <Entry>
84

>  <title>
12-2500

>  <rigid docking scores>
-18.4829

>  <InChIKey>
WXONZDNFKRFIDW-UHFFFAOYSA-N

$$$$
atoms 20 bonds 22
dotmatics
mol io
 20 22  0  0  0  0  0  0  0  0999 V2000
    4.4925    2.3580    0.0000 C   0  0  0  0  0  0  0  0  0  0  0  0
    4.4925    1.5310    0.0000 N   0  0  0  0  0  0  0  0  0  0  0  0
    5.2087    1.1175    0.0000 C   0  0  0  0  0  0  0  0  0  0  0  0
    5.2087    0.2905    0.0000 C   0  0  0  0  0  0  0  0  0  0  0  0
    4.4925   -0.1230    0.0000 N   0  0  0  0  0  0  0  0  0  0  0  0
    4.4925   -0.9500    0.0000 C   0  0  0  0  0  0  0  0  0  0  0  0
    5.2087   -1.3635    0.0000 O   0  0  0  0  0  0  0  0  0  0  0  0
    3.7763   -1.3635    0.0000 C   0  0  0  0  0  0  0  0  0  0  0  0
    3.6898   -2.1860    0.0000 C   0  0  0  0  0  0  0  0  0  0  0  0
    2.8809   -2.3580    0.0000 N   0  0  0  0  0  0  0  0  0  0  0  0
    2.4674   -1.6418    0.0000 C   0  0  0  0  0  0  0  0  0  0  0  0
    1.6449   -1.5553    0.0000 C   0  0  0  0  0  0  0  0  0  0  0  0
    1.1588   -2.2244    0.0000 C   0  0  0  0  0  0  0  0  0  0  0  0
    0.3364   -2.1379    0.0000 C   0  0  0  0  0  0  0  0  0  0  0  0
    0.0000   -1.3824    0.0000 C   0  0  0  0  0  0  0  0  0  0  0  0
    0.4861   -0.7134    0.0000 N   0  0  0  0  0  0  0  0  0  0  0  0
    1.3086   -0.7998    0.0000 C   0  0  0  0  0  0  0  0  0  0  0  0
    3.0208   -1.0272    0.0000 S   0  0  0  0  0  0  0  0  0  0  0  0
    3.7763    0.2905    0.0000 C   0  0  0  0  0  0  0  0  0  0  0  0
    3.7763    1.1175    0.0000 C   0  0  0  0  0  0  0  0  0  0  0  0
  1  2  1  0  0  0
  2 20  1  0  0  0
  2  3  1  0  0  0
  3  4  1  0  0  0
  4  5  1  0  0  0
  5  6  1  0  0  0
  6  7  2  0  0  0
  6  8  1  0  0  0
  8 18  1  0  0  0
  8  9  2  0  0  0
  9 10  1  0  0  0
 10 11  2  0  0  0
 11 12  1  0  0  0
 12 17  1  0  0  0
 12 13  2  0  0  0
 13 14  1  0  0  0
 14 15  2  0  0  0
 15 16  1  0  0  0
 16 17  2  0  0  0
 11 18  1  0  0  0
  5 19  1  0  0  0
 19 20  1  0  0  0
M  END
>  <Entry>
85

>  <title>
12-2501

>  <rigid docking scores>
-16.753

>  <InChIKey>
BJRKXRNCRYEHEY-UHFFFAOYSA-N

$$$$
atoms 19 bonds 21
dotmatics
mol io
 19 21  0  0  0  0  0  0  0  0999 V2000
   -1.6831    1.4920    0.0000 O   0  0  0  0  0  0  0  0  0  0  0  0
   -1.2696    2.2082    0.0000 C   0  0  0  0  0  0  0  0  0  0  0  0
   -0.4426    2.2082    0.0000 C   0  0  0  0  0  0  0  0  0  0  0  0
    0.0435    2.8772    0.0000 C   0  0  0  0  0  0  0  0  0  0  0  0
    0.8300    2.6217    0.0000 N   0  0  0  0  0  0  0  0  0  0  0  0
    0.8300    1.7947    0.0000 C   0  0  0  0  0  0  0  0  0  0  0  0
    1.4991    1.3086    0.0000 C   0  0  0  0  0  0  0  0  0  0  0  0
    2.2546    1.6449    0.0000 C   0  0  0  0  0  0  0  0  0  0  0  0
    2.9236    1.1588    0.0000 C   0  0  0  0  0  0  0  0  0  0  0  0
    2.8372    0.3364    0.0000 C   0  0  0  0  0  0  0  0  0  0  0  0
    2.0817   -0.0000    0.0000 N   0  0  0  0  0  0  0  0  0  0  0  0
    1.4126    0.4861    0.0000 C   0  0  0  0  0  0  0  0  0  0  0  0
    0.0435    1.5391    0.0000 S   0  0  0  0  0  0  0  0  0  0  0  0
   -1.6831    2.9244    0.0000 N   0  0  0  0  0  0  0  0  0  0  0  0
   -2.5101    2.9244    0.0000 C   0  0  0  0  0  0  0  0  0  0  0  0
   -2.9236    3.6406    0.0000 C   0  0  0  0  0  0  0  0  0  0  0  0
   -2.5101    4.3568    0.0000 O   0  0  0  0  0  0  0  0  0  0  0  0
   -1.6831    4.3568    0.0000 C   0  0  0  0  0  0  0  0  0  0  0  0
   -1.2696    3.6406    0.0000 C   0  0  0  0  0  0  0  0  0  0  0  0
  1  2  2  0  0  0
  2  3  1  0  0  0
  3 13  1  0  0  0
  3  4  2  0  0  0
  4  5  1  0  0  0
  5  6  2  0  0  0
  6  7  1  0  0  0
  7 12  1  0  0  0
  7  8  2  0  0  0
  8  9  1  0  0  0
  9 10  2  0  0  0
 10 11  1  0  0  0
 11 12  2  0  0  0
  6 13  1  0  0  0
  2 14  1  0  0  0
 14 19  1  0  0  0
 14 15  1  0  0  0
 15 16  1  0  0  0
 16 17  1  0  0  0
 17 18  1  0  0  0
 18 19  1  0  0  0
M  END
>  <Entry>
86

>  <title>
12-2502

>  <rigid docking scores>
-16.3654

>  <InChIKey>
KDOHAZLWOSKPKP-UHFFFAOYSA-N

$$$$
atoms 25 bonds 27
dotmatics
mol io
 25 27  0  0  0  0  0  0  0  0999 V2000
    9.1032   -1.7905    0.0000 C   0  0  0  0  0  0  0  0  0  0  0  0
    8.6897   -1.0743    0.0000 O   0  0  0  0  0  0  0  0  0  0  0  0
    7.8627   -1.0743    0.0000 C   0  0  0  0  0  0  0  0  0  0  0  0
    7.4492   -1.7905    0.0000 C   0  0  0  0  0  0  0  0  0  0  0  0
    6.6222   -1.7905    0.0000 C   0  0  0  0  0  0  0  0  0  0  0  0
    6.2087   -1.0743    0.0000 C   0  0  0  0  0  0  0  0  0  0  0  0
    6.6222   -0.3581    0.0000 C   0  0  0  0  0  0  0  0  0  0  0  0
    6.2087    0.3581    0.0000 N   0  0  0  0  0  0  0  0  0  0  0  0
    5.3817    0.3581    0.0000 C   0  0  0  0  0  0  0  0  0  0  0  0
    4.9682   -0.3581    0.0000 O   0  0  0  0  0  0  0  0  0  0  0  0
    4.9682    1.0743    0.0000 C   0  0  0  0  0  0  0  0  0  0  0  0
    5.3817    1.7905    0.0000 C   0  0  0  0  0  0  0  0  0  0  0  0
    4.1412    1.0743    0.0000 N   0  0  0  0  0  0  0  0  0  0  0  0
    3.7271    0.3585    0.0000 C   0  0  0  0  0  0  0  0  0  0  0  0
    2.8989    0.3585    0.0000 C   0  0  0  0  0  0  0  0  0  0  0  0
    2.4847    1.0743    0.0000 N   0  0  0  0  0  0  0  0  0  0  0  0
    1.6565    1.0743    0.0000 C   0  0  0  0  0  0  0  0  0  0  0  0
    1.2424    0.3585    0.0000 C   0  0  0  0  0  0  0  0  0  0  0  0
    0.4141    0.3585    0.0000 C   0  0  0  0  0  0  0  0  0  0  0  0
    0.0000    1.0743    0.0000 C   0  0  0  0  0  0  0  0  0  0  0  0
    0.4141    1.7901    0.0000 C   0  0  0  0  0  0  0  0  0  0  0  0
    1.2424    1.7901    0.0000 C   0  0  0  0  0  0  0  0  0  0  0  0
    2.8989    1.7901    0.0000 C   0  0  0  0  0  0  0  0  0  0  0  0
    3.7271    1.7901    0.0000 C   0  0  0  0  0  0  0  0  0  0  0  0
    7.4492   -0.3581    0.0000 C   0  0  0  0  0  0  0  0  0  0  0  0
  1  2  1  0  0  0
  2  3  1  0  0  0
  3 25  1  0  0  0
  3  4  2  0  0  0
  4  5  1  0  0  0
  5  6  2  0  0  0
  6  7  1  0  0  0
  7  8  1  0  0  0
  8  9  1  0  0  0
  9 10  2  0  0  0
  9 11  1  0  0  0
 11 12  1  0  0  0
 11 13  1  0  0  0
 13 24  1  0  0  0
 13 14  1  0  0  0
 14 15  1  0  0  0
 15 16  1  0  0  0
 16 17  1  0  0  0
 17 22  1  0  0  0
 17 18  1  0  0  0
 18 19  1  0  0  0
 19 20  1  0  0  0
 20 21  1  0  0  0
 21 22  1  0  0  0
 16 23  1  0  0  0
 23 24  1  0  0  0
  7 25  2  0  0  0
M  END
>  <Entry>
87

>  <title>
12-2544

>  <rigid docking scores>
-16.3369

>  <InChIKey>
WFMJKUXQCGIKEV-UHFFFAOYSA-N

$$$$
atoms 21 bonds 23
dotmatics
mol io
 21 23  0  0  0  0  0  0  0  0999 V2000
   -3.3348    3.5637    0.0000 C   0  0  0  0  0  0  0  0  0  0  0  0
   -2.9213    2.8475    0.0000 C   0  0  0  0  0  0  0  0  0  0  0  0
   -2.0943    2.8475    0.0000 N   0  0  0  0  0  0  0  0  0  0  0  0
   -1.6808    3.5637    0.0000 C   0  0  0  0  0  0  0  0  0  0  0  0
   -0.8538    3.5637    0.0000 C   0  0  0  0  0  0  0  0  0  0  0  0
   -0.4403    2.8475    0.0000 N   0  0  0  0  0  0  0  0  0  0  0  0
    0.3867    2.8475    0.0000 C   0  0  0  0  0  0  0  0  0  0  0  0
    0.8002    3.5637    0.0000 O   0  0  0  0  0  0  0  0  0  0  0  0
    0.8002    2.1313    0.0000 C   0  0  0  0  0  0  0  0  0  0  0  0
    0.4638    1.3758    0.0000 O   0  0  0  0  0  0  0  0  0  0  0  0
    1.0784    0.8225    0.0000 C   0  0  0  0  0  0  0  0  0  0  0  0
    0.9919   -0.0000    0.0000 C   0  0  0  0  0  0  0  0  0  0  0  0
    1.7946    1.2360    0.0000 N   0  0  0  0  0  0  0  0  0  0  0  0
    1.6226    2.0449    0.0000 C   0  0  0  0  0  0  0  0  0  0  0  0
    2.1760    2.6595    0.0000 C   0  0  0  0  0  0  0  0  0  0  0  0
    2.9985    2.5730    0.0000 C   0  0  0  0  0  0  0  0  0  0  0  0
    3.3348    3.3285    0.0000 C   0  0  0  0  0  0  0  0  0  0  0  0
    2.7203    3.8819    0.0000 C   0  0  0  0  0  0  0  0  0  0  0  0
    2.0041    3.4684    0.0000 O   0  0  0  0  0  0  0  0  0  0  0  0
   -0.8538    2.1313    0.0000 C   0  0  0  0  0  0  0  0  0  0  0  0
   -1.6808    2.1313    0.0000 C   0  0  0  0  0  0  0  0  0  0  0  0
  1  2  1  0  0  0
  2  3  1  0  0  0
  3 21  1  0  0  0
  3  4  1  0  0  0
  4  5  1  0  0  0
  5  6  1  0  0  0
  6  7  1  0  0  0
  7  8  2  0  0  0
  7  9  1  0  0  0
  9 14  2  0  0  0
  9 10  1  0  0  0
 10 11  1  0  0  0
 11 12  1  0  0  0
 11 13  2  0  0  0
 13 14  1  0  0  0
 14 15  1  0  0  0
 15 19  1  0  0  0
 15 16  2  0  0  0
 16 17  1  0  0  0
 17 18  2  0  0  0
 18 19  1  0  0  0
  6 20  1  0  0  0
 20 21  1  0  0  0
M  END
>  <Entry>
88

>  <title>
12-2622

>  <rigid docking scores>
-15.6648

>  <InChIKey>
ALSFLGAKEAPMEN-UHFFFAOYSA-N

$$$$
atoms 24 bonds 26
dotmatics
mol io
 24 26  0  0  0  0  0  0  0  0999 V2000
    2.1486   -0.0837    0.0000 O   0  0  0  0  0  0  0  0  0  0  0  0
    1.4324    0.3298    0.0000 C   0  0  0  0  0  0  0  0  0  0  0  0
    0.7162   -0.0837    0.0000 C   0  0  0  0  0  0  0  0  0  0  0  0
    0.7162   -0.9107    0.0000 C   0  0  0  0  0  0  0  0  0  0  0  0
    1.4324   -1.3242    0.0000 C   0  0  0  0  0  0  0  0  0  0  0  0
    1.4324   -2.1512    0.0000 C   0  0  0  0  0  0  0  0  0  0  0  0
    0.7162   -2.5647    0.0000 N   0  0  0  0  0  0  0  0  0  0  0  0
    0.0000   -2.1512    0.0000 C   0  0  0  0  0  0  0  0  0  0  0  0
    0.0000   -1.3242    0.0000 C   0  0  0  0  0  0  0  0  0  0  0  0
    1.4324    1.1568    0.0000 N   0  0  0  0  0  0  0  0  0  0  0  0
    2.1486    1.5703    0.0000 C   0  0  0  0  0  0  0  0  0  0  0  0
    2.2351    2.3928    0.0000 C   0  0  0  0  0  0  0  0  0  0  0  0
    3.0440    2.5647    0.0000 C   0  0  0  0  0  0  0  0  0  0  0  0
    3.4575    1.8485    0.0000 N   0  0  0  0  0  0  0  0  0  0  0  0
    4.2800    1.7621    0.0000 C   0  0  0  0  0  0  0  0  0  0  0  0
    4.7661    2.4311    0.0000 O   0  0  0  0  0  0  0  0  0  0  0  0
    4.6163    1.0066    0.0000 C   0  0  0  0  0  0  0  0  0  0  0  0
    5.4388    0.9201    0.0000 C   0  0  0  0  0  0  0  0  0  0  0  0
    5.7752    0.1646    0.0000 N   0  0  0  0  0  0  0  0  0  0  0  0
    5.2891   -0.5044    0.0000 C   0  0  0  0  0  0  0  0  0  0  0  0
    4.4666   -0.4180    0.0000 C   0  0  0  0  0  0  0  0  0  0  0  0
    4.1302    0.3375    0.0000 C   0  0  0  0  0  0  0  0  0  0  0  0
    3.3078    0.4239    0.0000 O   0  0  0  0  0  0  0  0  0  0  0  0
    2.9041    1.2339    0.0000 C   0  0  0  0  0  0  0  0  0  0  0  0
  1  2  2  0  0  0
  2  3  1  0  0  0
  3  4  1  0  0  0
  4  9  1  0  0  0
  4  5  2  0  0  0
  5  6  1  0  0  0
  6  7  2  0  0  0
  7  8  1  0  0  0
  8  9  2  0  0  0
  2 10  1  0  0  0
 10 11  1  0  0  0
 11 24  1  0  0  0
 11 12  1  0  0  0
 12 13  1  0  0  0
 13 14  1  0  0  0
 14 15  1  0  0  0
 15 16  2  0  0  0
 15 17  1  0  0  0
 17 22  1  0  0  0
 17 18  2  0  0  0
 18 19  1  0  0  0
 19 20  1  0  0  0
 20 21  2  0  0  0
 21 22  1  0  0  0
 22 23  2  0  0  0
 14 24  1  0  0  0
M  END
>  <Entry>
89

>  <title>
2-1408

>  <rigid docking scores>
-16.0188

>  <InChIKey>
XHQXMINZGWEAQC-UHFFFAOYSA-N

$$$$
atoms 20 bonds 22
dotmatics
mol io
 20 22  0  0  0  0  0  0  0  0999 V2000
    5.0043    2.7400    0.0000 C   0  0  0  0  0  0  0  0  0  0  0  0
    4.3349    2.2545    0.0000 N   0  0  0  0  0  0  0  0  0  0  0  0
    4.4206    1.4320    0.0000 C   0  0  0  0  0  0  0  0  0  0  0  0
    5.1364    1.0178    0.0000 C   0  0  0  0  0  0  0  0  0  0  0  0
    4.9638    0.2091    0.0000 C   0  0  0  0  0  0  0  0  0  0  0  0
    4.1412    0.1233    0.0000 N   0  0  0  0  0  0  0  0  0  0  0  0
    3.7271   -0.5925    0.0000 C   0  0  0  0  0  0  0  0  0  0  0  0
    4.1412   -1.3083    0.0000 C   0  0  0  0  0  0  0  0  0  0  0  0
    3.7271   -2.0242    0.0000 C   0  0  0  0  0  0  0  0  0  0  0  0
    4.1412   -2.7400    0.0000 C   0  0  0  0  0  0  0  0  0  0  0  0
    2.8989   -2.0242    0.0000 N   0  0  0  0  0  0  0  0  0  0  0  0
    2.4847   -1.3083    0.0000 C   0  0  0  0  0  0  0  0  0  0  0  0
    1.6565   -1.3083    0.0000 C   0  0  0  0  0  0  0  0  0  0  0  0
    1.2424   -2.0242    0.0000 C   0  0  0  0  0  0  0  0  0  0  0  0
    0.4141   -2.0242    0.0000 C   0  0  0  0  0  0  0  0  0  0  0  0
    0.0000   -1.3083    0.0000 C   0  0  0  0  0  0  0  0  0  0  0  0
    0.4141   -0.5925    0.0000 C   0  0  0  0  0  0  0  0  0  0  0  0
    1.2424   -0.5925    0.0000 C   0  0  0  0  0  0  0  0  0  0  0  0
    2.8989   -0.5925    0.0000 N   0  0  0  0  0  0  0  0  0  0  0  0
    3.8055    0.8791    0.0000 C   0  0  0  0  0  0  0  0  0  0  0  0
  1  2  1  0  0  0
  2  3  1  0  0  0
  3 20  1  0  0  0
  3  4  1  0  0  0
  4  5  1  0  0  0
  5  6  1  0  0  0
  6  7  1  0  0  0
  7 19  1  0  0  0
  7  8  2  0  0  0
  8  9  1  0  0  0
  9 10  1  0  0  0
  9 11  2  0  0  0
 11 12  1  0  0  0
 12 13  1  0  0  0
 13 18  1  0  0  0
 13 14  2  0  0  0
 14 15  1  0  0  0
 15 16  2  0  0  0
 16 17  1  0  0  0
 17 18  2  0  0  0
 12 19  2  0  0  0
  6 20  1  0  0  0
M  END
>  <Entry>
90

>  <title>
2-1428

>  <rigid docking scores>
-20.4213

>  <InChIKey>
OURBSAADNSMDOO-UHFFFAOYSA-N

$$$$
atoms 19 bonds 21
dotmatics
mol io
 19 21  0  0  0  0  0  0  0  0999 V2000
    0.0000    0.5630    0.0000 O   0  0  0  0  0  0  0  0  0  0  0  0
    0.7162    0.1495    0.0000 C   0  0  0  0  0  0  0  0  0  0  0  0
    0.7162   -0.6775    0.0000 C   0  0  0  0  0  0  0  0  0  0  0  0
    1.3853   -1.1636    0.0000 C   0  0  0  0  0  0  0  0  0  0  0  0
    1.1297   -1.9502    0.0000 S   0  0  0  0  0  0  0  0  0  0  0  0
    0.3027   -1.9502    0.0000 N   0  0  0  0  0  0  0  0  0  0  0  0
    0.0471   -1.1636    0.0000 N   0  0  0  0  0  0  0  0  0  0  0  0
    1.4324    0.5630    0.0000 N   0  0  0  0  0  0  0  0  0  0  0  0
    1.3706    1.3877    0.0000 C   0  0  0  0  0  0  0  0  0  0  0  0
    1.9768    1.9502    0.0000 C   0  0  0  0  0  0  0  0  0  0  0  0
    2.7946    1.8269    0.0000 C   0  0  0  0  0  0  0  0  0  0  0  0
    3.2081    1.1107    0.0000 N   0  0  0  0  0  0  0  0  0  0  0  0
    4.0328    1.1725    0.0000 C   0  0  0  0  0  0  0  0  0  0  0  0
    4.4675    1.8760    0.0000 N   0  0  0  0  0  0  0  0  0  0  0  0
    5.2710    1.6799    0.0000 C   0  0  0  0  0  0  0  0  0  0  0  0
    5.3328    0.8553    0.0000 C   0  0  0  0  0  0  0  0  0  0  0  0
    4.5675    0.5416    0.0000 S   0  0  0  0  0  0  0  0  0  0  0  0
    2.9060    0.3409    0.0000 C   0  0  0  0  0  0  0  0  0  0  0  0
    2.1157    0.0971    0.0000 C   0  0  0  0  0  0  0  0  0  0  0  0
  1  2  2  0  0  0
  2  3  1  0  0  0
  3  7  1  0  0  0
  3  4  2  0  0  0
  4  5  1  0  0  0
  5  6  1  0  0  0
  6  7  2  0  0  0
  2  8  1  0  0  0
  8 19  1  0  0  0
  8  9  1  0  0  0
  9 10  1  0  0  0
 10 11  1  0  0  0
 11 12  1  0  0  0
 12 13  1  0  0  0
 13 17  1  0  0  0
 13 14  2  0  0  0
 14 15  1  0  0  0
 15 16  2  0  0  0
 16 17  1  0  0  0
 12 18  1  0  0  0
 18 19  1  0  0  0
M  END
>  <Entry>
91

>  <title>
12-2761

>  <rigid docking scores>
-16.0035

>  <InChIKey>
ATIKBQLCFXYOSE-UHFFFAOYSA-N

>  <Pubchem>
47424304

>  <Mcule>
MCULE-7477376235

$$$$
atoms 22 bonds 24
dotmatics
mol io
 22 24  0  0  0  0  0  0  0  0999 V2000
    7.8627   -1.4322    0.0000 N   0  0  0  0  0  0  0  0  0  0  0  0
    7.4492   -0.7160    0.0000 C   0  0  0  0  0  0  0  0  0  0  0  0
    7.8627    0.0002    0.0000 O   0  0  0  0  0  0  0  0  0  0  0  0
    6.6222   -0.7160    0.0000 C   0  0  0  0  0  0  0  0  0  0  0  0
    6.2087   -1.4322    0.0000 C   0  0  0  0  0  0  0  0  0  0  0  0
    5.3817   -1.4322    0.0000 C   0  0  0  0  0  0  0  0  0  0  0  0
    4.9682   -0.7160    0.0000 C   0  0  0  0  0  0  0  0  0  0  0  0
    5.3817    0.0002    0.0000 C   0  0  0  0  0  0  0  0  0  0  0  0
    4.9682    0.7164    0.0000 C   0  0  0  0  0  0  0  0  0  0  0  0
    4.1412    0.7164    0.0000 N   0  0  0  0  0  0  0  0  0  0  0  0
    3.7271    0.0005    0.0000 C   0  0  0  0  0  0  0  0  0  0  0  0
    2.8989    0.0005    0.0000 C   0  0  0  0  0  0  0  0  0  0  0  0
    2.4847    0.7164    0.0000 C   0  0  0  0  0  0  0  0  0  0  0  0
    1.6565    0.7164    0.0000 N   0  0  0  0  0  0  0  0  0  0  0  0
    1.2424    0.0005    0.0000 C   0  0  0  0  0  0  0  0  0  0  0  0
    0.4141    0.0005    0.0000 C   0  0  0  0  0  0  0  0  0  0  0  0
    0.0000    0.7164    0.0000 C   0  0  0  0  0  0  0  0  0  0  0  0
    0.4141    1.4322    0.0000 C   0  0  0  0  0  0  0  0  0  0  0  0
    1.2424    1.4322    0.0000 C   0  0  0  0  0  0  0  0  0  0  0  0
    2.8989    1.4322    0.0000 C   0  0  0  0  0  0  0  0  0  0  0  0
    3.7271    1.4322    0.0000 C   0  0  0  0  0  0  0  0  0  0  0  0
    6.2087    0.0002    0.0000 C   0  0  0  0  0  0  0  0  0  0  0  0
  1  2  1  0  0  0
  2  3  2  0  0  0
  2  4  1  0  0  0
  4 22  1  0  0  0
  4  5  2  0  0  0
  5  6  1  0  0  0
  6  7  2  0  0  0
  7  8  1  0  0  0
  8  9  1  0  0  0
  9 10  1  0  0  0
 10 21  1  0  0  0
 10 11  1  0  0  0
 11 12  1  0  0  0
 12 13  1  0  0  0
 13 14  1  0  0  0
 14 19  1  0  0  0
 14 15  1  0  0  0
 15 16  1  0  0  0
 16 17  1  0  0  0
 17 18  1  0  0  0
 18 19  1  0  0  0
 13 20  1  0  0  0
 20 21  1  0  0  0
  8 22  2  0  0  0
M  END
>  <Entry>
92

>  <title>
12-2896

>  <rigid docking scores>
-18.1288

>  <InChIKey>
QQJKERYTIGCWFV-UHFFFAOYSA-N

$$$$
atoms 19 bonds 21
dotmatics
mol io
 19 21  0  0  0  0  0  0  0  0999 V2000
    4.4925    2.3580    0.0000 C   0  0  0  0  0  0  0  0  0  0  0  0
    4.4925    1.5310    0.0000 N   0  0  0  0  0  0  0  0  0  0  0  0
    5.2087    1.1175    0.0000 C   0  0  0  0  0  0  0  0  0  0  0  0
    5.2087    0.2905    0.0000 C   0  0  0  0  0  0  0  0  0  0  0  0
    4.4925   -0.1230    0.0000 N   0  0  0  0  0  0  0  0  0  0  0  0
    4.4925   -0.9500    0.0000 C   0  0  0  0  0  0  0  0  0  0  0  0
    3.7763   -1.3635    0.0000 C   0  0  0  0  0  0  0  0  0  0  0  0
    3.6898   -2.1860    0.0000 C   0  0  0  0  0  0  0  0  0  0  0  0
    2.8809   -2.3580    0.0000 C   0  0  0  0  0  0  0  0  0  0  0  0
    2.4674   -1.6418    0.0000 C   0  0  0  0  0  0  0  0  0  0  0  0
    1.6449   -1.5553    0.0000 C   0  0  0  0  0  0  0  0  0  0  0  0
    1.1588   -2.2244    0.0000 C   0  0  0  0  0  0  0  0  0  0  0  0
    0.3364   -2.1379    0.0000 C   0  0  0  0  0  0  0  0  0  0  0  0
    0.0000   -1.3824    0.0000 C   0  0  0  0  0  0  0  0  0  0  0  0
    0.4861   -0.7134    0.0000 C   0  0  0  0  0  0  0  0  0  0  0  0
    1.3086   -0.7998    0.0000 C   0  0  0  0  0  0  0  0  0  0  0  0
    3.0208   -1.0272    0.0000 O   0  0  0  0  0  0  0  0  0  0  0  0
    3.7763    0.2905    0.0000 C   0  0  0  0  0  0  0  0  0  0  0  0
    3.7763    1.1175    0.0000 C   0  0  0  0  0  0  0  0  0  0  0  0
  1  2  1  0  0  0
  2 19  1  0  0  0
  2  3  1  0  0  0
  3  4  1  0  0  0
  4  5  1  0  0  0
  5  6  1  0  0  0
  6  7  1  0  0  0
  7 17  1  0  0  0
  7  8  2  0  0  0
  8  9  1  0  0  0
  9 10  2  0  0  0
 10 11  1  0  0  0
 11 16  1  0  0  0
 11 12  2  0  0  0
 12 13  1  0  0  0
 13 14  2  0  0  0
 14 15  1  0  0  0
 15 16  2  0  0  0
 10 17  1  0  0  0
  5 18  1  0  0  0
 18 19  1  0  0  0
M  END
>  <Entry>
93

>  <title>
12-2904

>  <rigid docking scores>
-16.0286

>  <InChIKey>
FSHQROSMPPRNSW-UHFFFAOYSA-N

>  <Pubchem>
147559289

>  <Mcule>
MCULE-6453548021

$$$$
atoms 21 bonds 23
dotmatics
mol io
 21 23  0  0  0  0  0  0  0  0999 V2000
    5.7965    1.7896    0.0000 O   0  0  0  0  0  0  0  0  0  0  0  0
    6.2094    1.0730    0.0000 C   0  0  0  0  0  0  0  0  0  0  0  0
    7.0364    1.0723    0.0000 C   0  0  0  0  0  0  0  0  0  0  0  0
    7.4492    0.3558    0.0000 C   0  0  0  0  0  0  0  0  0  0  0  0
    7.0351   -0.3601    0.0000 C   0  0  0  0  0  0  0  0  0  0  0  0
    6.2081   -0.3594    0.0000 C   0  0  0  0  0  0  0  0  0  0  0  0
    5.7952    0.3572    0.0000 N   0  0  0  0  0  0  0  0  0  0  0  0
    4.9682    0.3579    0.0000 C   0  0  0  0  0  0  0  0  0  0  0  0
    4.5541   -0.3579    0.0000 C   0  0  0  0  0  0  0  0  0  0  0  0
    4.9682   -1.0738    0.0000 C   0  0  0  0  0  0  0  0  0  0  0  0
    4.5541   -1.7896    0.0000 C   0  0  0  0  0  0  0  0  0  0  0  0
    3.7259   -1.7896    0.0000 N   0  0  0  0  0  0  0  0  0  0  0  0
    3.3117   -1.0738    0.0000 C   0  0  0  0  0  0  0  0  0  0  0  0
    2.4835   -1.0738    0.0000 C   0  0  0  0  0  0  0  0  0  0  0  0
    2.0694   -1.7896    0.0000 C   0  0  0  0  0  0  0  0  0  0  0  0
    1.2411   -1.7896    0.0000 C   0  0  0  0  0  0  0  0  0  0  0  0
    0.8270   -1.0738    0.0000 C   0  0  0  0  0  0  0  0  0  0  0  0
    0.0000   -1.0738    0.0000 F   0  0  0  0  0  0  0  0  0  0  0  0
    1.2411   -0.3579    0.0000 C   0  0  0  0  0  0  0  0  0  0  0  0
    2.0694   -0.3579    0.0000 C   0  0  0  0  0  0  0  0  0  0  0  0
    3.7259   -0.3579    0.0000 N   0  0  0  0  0  0  0  0  0  0  0  0
  1  2  2  0  0  0
  2  7  1  0  0  0
  2  3  1  0  0  0
  3  4  1  0  0  0
  4  5  1  0  0  0
  5  6  1  0  0  0
  6  7  1  0  0  0
  7  8  1  0  0  0
  8  9  1  0  0  0
  9 21  1  0  0  0
  9 10  2  0  0  0
 10 11  1  0  0  0
 11 12  2  0  0  0
 12 13  1  0  0  0
 13 14  1  0  0  0
 14 20  1  0  0  0
 14 15  2  0  0  0
 15 16  1  0  0  0
 16 17  2  0  0  0
 17 18  1  0  0  0
 17 19  1  0  0  0
 19 20  2  0  0  0
 13 21  2  0  0  0
M  END
>  <Entry>
94

>  <title>
12-2911

>  <rigid docking scores>
-15.3537

>  <InChIKey>
CQSDSPNPIOBBKN-UHFFFAOYSA-N

$$$$
atoms 20 bonds 22
dotmatics
mol io
 20 22  0  0  0  0  0  0  0  0999 V2000
    7.4492    0.7133    0.0000 O   0  0  0  0  0  0  0  0  0  0  0  0
    6.6222    0.7140    0.0000 C   0  0  0  0  0  0  0  0  0  0  0  0
    6.2081   -0.0018    0.0000 C   0  0  0  0  0  0  0  0  0  0  0  0
    5.3811   -0.0011    0.0000 C   0  0  0  0  0  0  0  0  0  0  0  0
    4.9682    0.7155    0.0000 N   0  0  0  0  0  0  0  0  0  0  0  0
    4.1412    0.7162    0.0000 C   0  0  0  0  0  0  0  0  0  0  0  0
    3.7271    0.0004    0.0000 C   0  0  0  0  0  0  0  0  0  0  0  0
    4.1412   -0.7155    0.0000 C   0  0  0  0  0  0  0  0  0  0  0  0
    3.7271   -1.4313    0.0000 C   0  0  0  0  0  0  0  0  0  0  0  0
    2.8989   -1.4313    0.0000 N   0  0  0  0  0  0  0  0  0  0  0  0
    2.4847   -0.7155    0.0000 C   0  0  0  0  0  0  0  0  0  0  0  0
    1.6565   -0.7155    0.0000 C   0  0  0  0  0  0  0  0  0  0  0  0
    1.2424   -1.4313    0.0000 C   0  0  0  0  0  0  0  0  0  0  0  0
    0.4141   -1.4313    0.0000 C   0  0  0  0  0  0  0  0  0  0  0  0
    0.0000   -0.7155    0.0000 C   0  0  0  0  0  0  0  0  0  0  0  0
    0.4141    0.0004    0.0000 C   0  0  0  0  0  0  0  0  0  0  0  0
    1.2424    0.0004    0.0000 C   0  0  0  0  0  0  0  0  0  0  0  0
    2.8989    0.0004    0.0000 N   0  0  0  0  0  0  0  0  0  0  0  0
    5.3824    1.4313    0.0000 C   0  0  0  0  0  0  0  0  0  0  0  0
    6.2094    1.4306    0.0000 C   0  0  0  0  0  0  0  0  0  0  0  0
  1  2  1  0  0  0
  2 20  1  0  0  0
  2  3  1  0  0  0
  3  4  1  0  0  0
  4  5  1  0  0  0
  5  6  1  0  0  0
  6  7  1  0  0  0
  7 18  1  0  0  0
  7  8  2  0  0  0
  8  9  1  0  0  0
  9 10  2  0  0  0
 10 11  1  0  0  0
 11 12  1  0  0  0
 12 17  1  0  0  0
 12 13  2  0  0  0
 13 14  1  0  0  0
 14 15  2  0  0  0
 15 16  1  0  0  0
 16 17  2  0  0  0
 11 18  2  0  0  0
  5 19  1  0  0  0
 19 20  1  0  0  0
M  END
>  <Entry>
95

>  <title>
12-2912

>  <rigid docking scores>
-19.9283

>  <InChIKey>
QNQJMTRPHWKKIH-UHFFFAOYSA-N

$$$$
atoms 18 bonds 20
dotmatics
mol io
 18 20  0  0  0  0  0  0  0  0999 V2000
   -2.5026    3.3670    0.0000 C   0  0  0  0  0  0  0  0  0  0  0  0
   -2.0891    4.0832    0.0000 C   0  0  0  0  0  0  0  0  0  0  0  0
   -1.2621    4.0832    0.0000 C   0  0  0  0  0  0  0  0  0  0  0  0
   -0.8486    3.3670    0.0000 C   0  0  0  0  0  0  0  0  0  0  0  0
   -0.0216    3.3670    0.0000 C   0  0  0  0  0  0  0  0  0  0  0  0
    0.4645    4.0361    0.0000 N   0  0  0  0  0  0  0  0  0  0  0  0
    1.2510    3.7805    0.0000 C   0  0  0  0  0  0  0  0  0  0  0  0
    1.2510    2.9535    0.0000 C   0  0  0  0  0  0  0  0  0  0  0  0
    1.9200    2.4674    0.0000 C   0  0  0  0  0  0  0  0  0  0  0  0
    1.8336    1.6449    0.0000 N   0  0  0  0  0  0  0  0  0  0  0  0
    2.5026    1.1588    0.0000 C   0  0  0  0  0  0  0  0  0  0  0  0
    2.4162    0.3364    0.0000 C   0  0  0  0  0  0  0  0  0  0  0  0
    1.6607   -0.0000    0.0000 O   0  0  0  0  0  0  0  0  0  0  0  0
    0.9916    0.4861    0.0000 C   0  0  0  0  0  0  0  0  0  0  0  0
    1.0781    1.3086    0.0000 C   0  0  0  0  0  0  0  0  0  0  0  0
    0.4645    2.6980    0.0000 S   0  0  0  0  0  0  0  0  0  0  0  0
   -1.2621    2.6508    0.0000 C   0  0  0  0  0  0  0  0  0  0  0  0
   -2.0891    2.6508    0.0000 C   0  0  0  0  0  0  0  0  0  0  0  0
  1 18  1  0  0  0
  1  2  2  0  0  0
  2  3  1  0  0  0
  3  4  2  0  0  0
  4  5  1  0  0  0
  5 16  1  0  0  0
  5  6  2  0  0  0
  6  7  1  0  0  0
  7  8  2  0  0  0
  8  9  1  0  0  0
  9 10  1  0  0  0
 10 15  1  0  0  0
 10 11  1  0  0  0
 11 12  1  0  0  0
 12 13  1  0  0  0
 13 14  1  0  0  0
 14 15  1  0  0  0
  8 16  1  0  0  0
  4 17  1  0  0  0
 17 18  2  0  0  0
M  END
>  <Entry>
96

>  <title>
12-2924

>  <rigid docking scores>
-16.0854

>  <InChIKey>
XEPFBRZITUAWRI-UHFFFAOYSA-N

>  <SureChEMBL Patents>
SCHEMBL11388939

>  <Pubchem>
70577100

$$$$
atoms 18 bonds 20
dotmatics
mol io
 18 20  0  0  0  0  0  0  0  0999 V2000
    4.1564    2.3580    0.0000 C   0  0  0  0  0  0  0  0  0  0  0  0
    4.1564    1.5310    0.0000 N   0  0  0  0  0  0  0  0  0  0  0  0
    4.8726    1.1175    0.0000 C   0  0  0  0  0  0  0  0  0  0  0  0
    4.8726    0.2905    0.0000 C   0  0  0  0  0  0  0  0  0  0  0  0
    4.1564   -0.1230    0.0000 N   0  0  0  0  0  0  0  0  0  0  0  0
    4.1564   -0.9500    0.0000 C   0  0  0  0  0  0  0  0  0  0  0  0
    3.4402   -1.3635    0.0000 C   0  0  0  0  0  0  0  0  0  0  0  0
    3.3538   -2.1860    0.0000 C   0  0  0  0  0  0  0  0  0  0  0  0
    2.5448   -2.3580    0.0000 N   0  0  0  0  0  0  0  0  0  0  0  0
    2.1313   -1.6418    0.0000 C   0  0  0  0  0  0  0  0  0  0  0  0
    1.3089   -1.5553    0.0000 C   0  0  0  0  0  0  0  0  0  0  0  0
    0.7555   -2.1699    0.0000 C   0  0  0  0  0  0  0  0  0  0  0  0
    0.0000   -1.8335    0.0000 C   0  0  0  0  0  0  0  0  0  0  0  0
    0.0864   -1.0110    0.0000 C   0  0  0  0  0  0  0  0  0  0  0  0
    0.8954   -0.8391    0.0000 S   0  0  0  0  0  0  0  0  0  0  0  0
    2.6847   -1.0272    0.0000 S   0  0  0  0  0  0  0  0  0  0  0  0
    3.4402    0.2905    0.0000 C   0  0  0  0  0  0  0  0  0  0  0  0
    3.4402    1.1175    0.0000 C   0  0  0  0  0  0  0  0  0  0  0  0
  1  2  1  0  0  0
  2 18  1  0  0  0
  2  3  1  0  0  0
  3  4  1  0  0  0
  4  5  1  0  0  0
  5  6  1  0  0  0
  6  7  1  0  0  0
  7 16  1  0  0  0
  7  8  2  0  0  0
  8  9  1  0  0  0
  9 10  2  0  0  0
 10 11  1  0  0  0
 11 15  1  0  0  0
 11 12  2  0  0  0
 12 13  1  0  0  0
 13 14  2  0  0  0
 14 15  1  0  0  0
 10 16  1  0  0  0
  5 17  1  0  0  0
 17 18  1  0  0  0
M  END
>  <Entry>
97

>  <title>
12-2928

>  <rigid docking scores>
-16.0394

>  <InChIKey>
LQWWGIOEVDAGSF-UHFFFAOYSA-N

>  <Mcule>
MCULE-7517083277

$$$$
atoms 17 bonds 19
dotmatics
mol io
 17 19  0  0  0  0  0  0  0  0999 V2000
    4.7844    1.6072    0.0000 C   0  0  0  0  0  0  0  0  0  0  0  0
    5.4534    1.1211    0.0000 C   0  0  0  0  0  0  0  0  0  0  0  0
    5.1979    0.3345    0.0000 S   0  0  0  0  0  0  0  0  0  0  0  0
    4.3709    0.3345    0.0000 C   0  0  0  0  0  0  0  0  0  0  0  0
    3.8848   -0.3345    0.0000 C   0  0  0  0  0  0  0  0  0  0  0  0
    4.1403   -1.1211    0.0000 N   0  0  0  0  0  0  0  0  0  0  0  0
    3.4713   -1.6072    0.0000 C   0  0  0  0  0  0  0  0  0  0  0  0
    2.8022   -1.1211    0.0000 C   0  0  0  0  0  0  0  0  0  0  0  0
    2.0157   -1.3766    0.0000 C   0  0  0  0  0  0  0  0  0  0  0  0
    1.4011   -0.8232    0.0000 N   0  0  0  0  0  0  0  0  0  0  0  0
    0.6146   -1.0788    0.0000 C   0  0  0  0  0  0  0  0  0  0  0  0
    0.0000   -0.5254    0.0000 C   0  0  0  0  0  0  0  0  0  0  0  0
    0.1719    0.2835    0.0000 O   0  0  0  0  0  0  0  0  0  0  0  0
    0.9585    0.5391    0.0000 C   0  0  0  0  0  0  0  0  0  0  0  0
    1.5730   -0.0143    0.0000 C   0  0  0  0  0  0  0  0  0  0  0  0
    3.0578   -0.3345    0.0000 S   0  0  0  0  0  0  0  0  0  0  0  0
    4.1153    1.1211    0.0000 C   0  0  0  0  0  0  0  0  0  0  0  0
  1 17  1  0  0  0
  1  2  2  0  0  0
  2  3  1  0  0  0
  3  4  1  0  0  0
  4  5  1  0  0  0
  5 16  1  0  0  0
  5  6  2  0  0  0
  6  7  1  0  0  0
  7  8  2  0  0  0
  8  9  1  0  0  0
  9 10  1  0  0  0
 10 15  1  0  0  0
 10 11  1  0  0  0
 11 12  1  0  0  0
 12 13  1  0  0  0
 13 14  1  0  0  0
 14 15  1  0  0  0
  8 16  1  0  0  0
  4 17  2  0  0  0
M  END
>  <Entry>
98

>  <title>
12-2929

>  <rigid docking scores>
-15.9447

>  <InChIKey>
SHBMUXRVSDMMET-UHFFFAOYSA-N

>  <Mcule>
MCULE-7333921730

$$$$
atoms 17 bonds 19
dotmatics
mol io
 17 19  0  0  0  0  0  0  0  0999 V2000
   -2.7053    0.6691    0.0000 C   0  0  0  0  0  0  0  0  0  0  0  0
   -2.2192    1.3381    0.0000 C   0  0  0  0  0  0  0  0  0  0  0  0
   -1.4326    1.0826    0.0000 C   0  0  0  0  0  0  0  0  0  0  0  0
   -0.7636    1.5687    0.0000 C   0  0  0  0  0  0  0  0  0  0  0  0
   -0.7636    2.3957    0.0000 N   0  0  0  0  0  0  0  0  0  0  0  0
    0.0229    2.6512    0.0000 C   0  0  0  0  0  0  0  0  0  0  0  0
    0.2785    3.4377    0.0000 C   0  0  0  0  0  0  0  0  0  0  0  0
    1.0874    3.6097    0.0000 N   0  0  0  0  0  0  0  0  0  0  0  0
    1.3430    4.3962    0.0000 C   0  0  0  0  0  0  0  0  0  0  0  0
    2.1519    4.5681    0.0000 C   0  0  0  0  0  0  0  0  0  0  0  0
    2.7053    3.9536    0.0000 N   0  0  0  0  0  0  0  0  0  0  0  0
    2.4497    3.1670    0.0000 C   0  0  0  0  0  0  0  0  0  0  0  0
    1.6408    2.9951    0.0000 C   0  0  0  0  0  0  0  0  0  0  0  0
    0.5090    1.9822    0.0000 C   0  0  0  0  0  0  0  0  0  0  0  0
    0.0229    1.3131    0.0000 S   0  0  0  0  0  0  0  0  0  0  0  0
   -1.4326    0.2556    0.0000 C   0  0  0  0  0  0  0  0  0  0  0  0
   -2.2192    0.0000    0.0000 S   0  0  0  0  0  0  0  0  0  0  0  0
  1 17  1  0  0  0
  1  2  2  0  0  0
  2  3  1  0  0  0
  3  4  1  0  0  0
  4 15  1  0  0  0
  4  5  2  0  0  0
  5  6  1  0  0  0
  6  7  1  0  0  0
  7  8  1  0  0  0
  8 13  1  0  0  0
  8  9  1  0  0  0
  9 10  1  0  0  0
 10 11  1  0  0  0
 11 12  1  0  0  0
 12 13  1  0  0  0
  6 14  2  0  0  0
 14 15  1  0  0  0
  3 16  2  0  0  0
 16 17  1  0  0  0
M  END
>  <Entry>
99

>  <title>
12-2955

>  <rigid docking scores>
-15.6745

>  <InChIKey>
AOVLIYHGIZTVER-UHFFFAOYSA-N

>  <ZINC>
ZINC000020268683

>  <Pubchem>
16227456

>  <Mcule>
MCULE-1253331244

$$$$
atoms 20 bonds 22
dotmatics
mol io
 20 22  0  0  0  0  0  0  0  0999 V2000
   -3.6078    3.5595    0.0000 C   0  0  0  0  0  0  0  0  0  0  0  0
   -3.1943    2.8433    0.0000 C   0  0  0  0  0  0  0  0  0  0  0  0
   -3.6078    2.1271    0.0000 O   0  0  0  0  0  0  0  0  0  0  0  0
   -2.3673    2.8433    0.0000 N   0  0  0  0  0  0  0  0  0  0  0  0
   -1.9538    3.5595    0.0000 C   0  0  0  0  0  0  0  0  0  0  0  0
   -1.1268    3.5595    0.0000 C   0  0  0  0  0  0  0  0  0  0  0  0
   -0.7133    2.8433    0.0000 N   0  0  0  0  0  0  0  0  0  0  0  0
    0.1137    2.8433    0.0000 C   0  0  0  0  0  0  0  0  0  0  0  0
    0.5272    2.1271    0.0000 C   0  0  0  0  0  0  0  0  0  0  0  0
    1.3496    2.0407    0.0000 N   0  0  0  0  0  0  0  0  0  0  0  0
    1.5216    1.2317    0.0000 C   0  0  0  0  0  0  0  0  0  0  0  0
    2.2771    0.8954    0.0000 C   0  0  0  0  0  0  0  0  0  0  0  0
    2.9933    1.3089    0.0000 C   0  0  0  0  0  0  0  0  0  0  0  0
    3.6078    0.7555    0.0000 C   0  0  0  0  0  0  0  0  0  0  0  0
    3.2715   -0.0000    0.0000 C   0  0  0  0  0  0  0  0  0  0  0  0
    2.4490    0.0864    0.0000 S   0  0  0  0  0  0  0  0  0  0  0  0
    0.8054    0.8182    0.0000 N   0  0  0  0  0  0  0  0  0  0  0  0
    0.1908    1.3716    0.0000 O   0  0  0  0  0  0  0  0  0  0  0  0
   -1.1268    2.1271    0.0000 C   0  0  0  0  0  0  0  0  0  0  0  0
   -1.9538    2.1271    0.0000 C   0  0  0  0  0  0  0  0  0  0  0  0
  1  2  1  0  0  0
  2  3  2  0  0  0
  2  4  1  0  0  0
  4 20  1  0  0  0
  4  5  1  0  0  0
  5  6  1  0  0  0
  6  7  1  0  0  0
  7  8  1  0  0  0
  8  9  1  0  0  0
  9 18  1  0  0  0
  9 10  2  0  0  0
 10 11  1  0  0  0
 11 12  1  0  0  0
 12 16  1  0  0  0
 12 13  2  0  0  0
 13 14  1  0  0  0
 14 15  2  0  0  0
 15 16  1  0  0  0
 11 17  2  0  0  0
 17 18  1  0  0  0
  7 19  1  0  0  0
 19 20  1  0  0  0
M  END
>  <Entry>
100

>  <title>
12-3009

>  <rigid docking scores>
-15.7074

>  <InChIKey>
IXHGJDQBZBDVRW-UHFFFAOYSA-N

>  <ZINC>
ZINC000016699029

>  <eMolecules>
30635673

>  <Pubchem>
47010398

>  <Mcule>
MCULE-5996146922

>  <MolPort>
MolPort-008-254-209

$$$$
atoms 22 bonds 25
dotmatics
mol io
 22 25  0  0  0  0  0  0  0  0999 V2000
    2.1771   -2.9798    0.0000 C   0  0  0  0  0  0  0  0  0  0  0  0
    2.1712   -2.1528    0.0000 N   0  0  0  0  0  0  0  0  0  0  0  0
    1.4520   -1.7444    0.0000 C   0  0  0  0  0  0  0  0  0  0  0  0
    1.4461   -0.9175    0.0000 C   0  0  0  0  0  0  0  0  0  0  0  0
    2.1594   -0.4989    0.0000 N   0  0  0  0  0  0  0  0  0  0  0  0
    2.1534    0.3281    0.0000 C   0  0  0  0  0  0  0  0  0  0  0  0
    2.8693    0.7422    0.0000 N   0  0  0  0  0  0  0  0  0  0  0  0
    2.8693    1.5705    0.0000 C   0  0  0  0  0  0  0  0  0  0  0  0
    3.5851    1.9846    0.0000 C   0  0  0  0  0  0  0  0  0  0  0  0
    3.6709    2.8072    0.0000 C   0  0  0  0  0  0  0  0  0  0  0  0
    4.4796    2.9798    0.0000 C   0  0  0  0  0  0  0  0  0  0  0  0
    4.8938    2.2640    0.0000 C   0  0  0  0  0  0  0  0  0  0  0  0
    4.3409    1.6489    0.0000 S   0  0  0  0  0  0  0  0  0  0  0  0
    2.1534    1.9846    0.0000 N   0  0  0  0  0  0  0  0  0  0  0  0
    1.4317    1.5705    0.0000 C   0  0  0  0  0  0  0  0  0  0  0  0
    1.4317    0.7422    0.0000 C   0  0  0  0  0  0  0  0  0  0  0  0
    0.7158    0.3281    0.0000 C   0  0  0  0  0  0  0  0  0  0  0  0
    0.0000    0.7422    0.0000 C   0  0  0  0  0  0  0  0  0  0  0  0
    0.0000    1.5705    0.0000 C   0  0  0  0  0  0  0  0  0  0  0  0
    0.7158    1.9846    0.0000 C   0  0  0  0  0  0  0  0  0  0  0  0
    2.8785   -0.9072    0.0000 C   0  0  0  0  0  0  0  0  0  0  0  0
    2.8844   -1.7342    0.0000 C   0  0  0  0  0  0  0  0  0  0  0  0
  1  2  1  0  0  0
  2 22  1  0  0  0
  2  3  1  0  0  0
  3  4  1  0  0  0
  4  5  1  0  0  0
  5  6  1  0  0  0
  6 16  1  0  0  0
  6  7  2  0  0  0
  7  8  1  0  0  0
  8  9  1  0  0  0
  9 13  1  0  0  0
  9 10  2  0  0  0
 10 11  1  0  0  0
 11 12  2  0  0  0
 12 13  1  0  0  0
  8 14  2  0  0  0
 14 15  1  0  0  0
 15 20  1  0  0  0
 15 16  2  0  0  0
 16 17  1  0  0  0
 17 18  1  0  0  0
 18 19  1  0  0  0
 19 20  1  0  0  0
  5 21  1  0  0  0
 21 22  1  0  0  0
M  END
>  <Entry>
101

>  <title>
12-3070

>  <rigid docking scores>
-18.2259

>  <InChIKey>
MHXXEVHJLYHORZ-UHFFFAOYSA-N

$$$$
atoms 19 bonds 21
dotmatics
mol io
 19 21  0  0  0  0  0  0  0  0999 V2000
   -3.4679    4.1779    0.0000 C   0  0  0  0  0  0  0  0  0  0  0  0
   -2.9818    4.8470    0.0000 C   0  0  0  0  0  0  0  0  0  0  0  0
   -2.1953    4.5914    0.0000 S   0  0  0  0  0  0  0  0  0  0  0  0
   -2.1953    3.7644    0.0000 C   0  0  0  0  0  0  0  0  0  0  0  0
   -1.5262    3.2783    0.0000 C   0  0  0  0  0  0  0  0  0  0  0  0
   -0.7397    3.5339    0.0000 N   0  0  0  0  0  0  0  0  0  0  0  0
   -0.2536    2.8648    0.0000 C   0  0  0  0  0  0  0  0  0  0  0  0
    0.5734    2.8648    0.0000 C   0  0  0  0  0  0  0  0  0  0  0  0
    0.9869    2.1486    0.0000 N   0  0  0  0  0  0  0  0  0  0  0  0
    1.8139    2.1486    0.0000 C   0  0  0  0  0  0  0  0  0  0  0  0
    2.2274    1.4324    0.0000 C   0  0  0  0  0  0  0  0  0  0  0  0
    3.0544    1.4324    0.0000 C   0  0  0  0  0  0  0  0  0  0  0  0
    3.4679    0.7162    0.0000 C   0  0  0  0  0  0  0  0  0  0  0  0
    3.0544   -0.0000    0.0000 N   0  0  0  0  0  0  0  0  0  0  0  0
    2.2274   -0.0000    0.0000 C   0  0  0  0  0  0  0  0  0  0  0  0
    1.8139    0.7162    0.0000 C   0  0  0  0  0  0  0  0  0  0  0  0
   -0.7397    2.1958    0.0000 C   0  0  0  0  0  0  0  0  0  0  0  0
   -1.5262    2.4513    0.0000 S   0  0  0  0  0  0  0  0  0  0  0  0
   -2.9818    3.5089    0.0000 C   0  0  0  0  0  0  0  0  0  0  0  0
  1 19  1  0  0  0
  1  2  2  0  0  0
  2  3  1  0  0  0
  3  4  1  0  0  0
  4  5  1  0  0  0
  5 18  1  0  0  0
  5  6  2  0  0  0
  6  7  1  0  0  0
  7  8  1  0  0  0
  8  9  1  0  0  0
  9 10  1  0  0  0
 10 11  1  0  0  0
 11 16  1  0  0  0
 11 12  1  0  0  0
 12 13  1  0  0  0
 13 14  1  0  0  0
 14 15  1  0  0  0
 15 16  1  0  0  0
  7 17  2  0  0  0
 17 18  1  0  0  0
  4 19  2  0  0  0
M  END
>  <Entry>
102

>  <title>
12-3146

>  <rigid docking scores>
-17.0267

>  <InChIKey>
DACKMMGUYALJCD-UHFFFAOYSA-N

$$$$
atoms 17 bonds 19
dotmatics
mol io
 17 19  0  0  0  0  0  0  0  0999 V2000
   -2.8477    0.8355    0.0000 C   0  0  0  0  0  0  0  0  0  0  0  0
   -2.3616    1.5046    0.0000 C   0  0  0  0  0  0  0  0  0  0  0  0
   -1.5750    1.2490    0.0000 C   0  0  0  0  0  0  0  0  0  0  0  0
   -0.9060    1.7351    0.0000 C   0  0  0  0  0  0  0  0  0  0  0  0
   -0.9060    2.5621    0.0000 N   0  0  0  0  0  0  0  0  0  0  0  0
   -0.1194    2.8177    0.0000 C   0  0  0  0  0  0  0  0  0  0  0  0
    0.3667    2.1486    0.0000 C   0  0  0  0  0  0  0  0  0  0  0  0
    1.1937    2.1486    0.0000 C   0  0  0  0  0  0  0  0  0  0  0  0
    1.6072    1.4324    0.0000 N   0  0  0  0  0  0  0  0  0  0  0  0
    2.4342    1.4324    0.0000 C   0  0  0  0  0  0  0  0  0  0  0  0
    2.8477    0.7162    0.0000 C   0  0  0  0  0  0  0  0  0  0  0  0
    2.4342   -0.0000    0.0000 N   0  0  0  0  0  0  0  0  0  0  0  0
    1.6072   -0.0000    0.0000 C   0  0  0  0  0  0  0  0  0  0  0  0
    1.1937    0.7162    0.0000 C   0  0  0  0  0  0  0  0  0  0  0  0
   -0.1194    1.4796    0.0000 S   0  0  0  0  0  0  0  0  0  0  0  0
   -1.5750    0.4220    0.0000 C   0  0  0  0  0  0  0  0  0  0  0  0
   -2.3616    0.1665    0.0000 S   0  0  0  0  0  0  0  0  0  0  0  0
  1 17  1  0  0  0
  1  2  2  0  0  0
  2  3  1  0  0  0
  3  4  1  0  0  0
  4 15  1  0  0  0
  4  5  2  0  0  0
  5  6  1  0  0  0
  6  7  2  0  0  0
  7  8  1  0  0  0
  8  9  1  0  0  0
  9 14  1  0  0  0
  9 10  1  0  0  0
 10 11  1  0  0  0
 11 12  1  0  0  0
 12 13  1  0  0  0
 13 14  1  0  0  0
  7 15  1  0  0  0
  3 16  2  0  0  0
 16 17  1  0  0  0
M  END
>  <Entry>
103

>  <title>
12-3212

>  <rigid docking scores>
-19.5069

>  <InChIKey>
KTURVJXLXQWXOL-UHFFFAOYSA-N

$$$$
atoms 23 bonds 25
dotmatics
mol io
 23 25  0  0  0  0  0  0  0  0999 V2000
    3.9501    1.7851    0.0000 N   0  0  0  0  0  0  0  0  0  0  0  0
    3.5366    2.5013    0.0000 C   0  0  0  0  0  0  0  0  0  0  0  0
    3.9501    3.2175    0.0000 O   0  0  0  0  0  0  0  0  0  0  0  0
    2.7096    2.5013    0.0000 C   0  0  0  0  0  0  0  0  0  0  0  0
    2.2185    3.1699    0.0000 O   0  0  0  0  0  0  0  0  0  0  0  0
    1.4317    2.9155    0.0000 C   0  0  0  0  0  0  0  0  0  0  0  0
    0.7158    3.3296    0.0000 C   0  0  0  0  0  0  0  0  0  0  0  0
    0.0000    2.9155    0.0000 C   0  0  0  0  0  0  0  0  0  0  0  0
    0.0000    2.0872    0.0000 C   0  0  0  0  0  0  0  0  0  0  0  0
    0.7158    1.6731    0.0000 C   0  0  0  0  0  0  0  0  0  0  0  0
    1.4317    2.0872    0.0000 C   0  0  0  0  0  0  0  0  0  0  0  0
    2.2185    1.8328    0.0000 C   0  0  0  0  0  0  0  0  0  0  0  0
    2.4709    1.0453    0.0000 N   0  0  0  0  0  0  0  0  0  0  0  0
    1.9151    0.4329    0.0000 C   0  0  0  0  0  0  0  0  0  0  0  0
    1.1069    0.6081    0.0000 O   0  0  0  0  0  0  0  0  0  0  0  0
    2.1675   -0.3546    0.0000 C   0  0  0  0  0  0  0  0  0  0  0  0
    1.6117   -0.9670    0.0000 C   0  0  0  0  0  0  0  0  0  0  0  0
    1.8641   -1.7545    0.0000 N   0  0  0  0  0  0  0  0  0  0  0  0
    2.6724   -1.9297    0.0000 C   0  0  0  0  0  0  0  0  0  0  0  0
    2.9248   -2.7172    0.0000 C   0  0  0  0  0  0  0  0  0  0  0  0
    2.3690   -3.3296    0.0000 O   0  0  0  0  0  0  0  0  0  0  0  0
    1.5607   -3.1544    0.0000 C   0  0  0  0  0  0  0  0  0  0  0  0
    1.3083   -2.3669    0.0000 C   0  0  0  0  0  0  0  0  0  0  0  0
  1  2  1  0  0  0
  2  3  2  0  0  0
  2  4  1  0  0  0
  4 12  2  0  0  0
  4  5  1  0  0  0
  5  6  1  0  0  0
  6 11  1  0  0  0
  6  7  2  0  0  0
  7  8  1  0  0  0
  8  9  2  0  0  0
  9 10  1  0  0  0
 10 11  2  0  0  0
 11 12  1  0  0  0
 12 13  1  0  0  0
 13 14  1  0  0  0
 14 15  2  0  0  0
 14 16  1  0  0  0
 16 17  1  0  0  0
 17 18  1  0  0  0
 18 23  1  0  0  0
 18 19  1  0  0  0
 19 20  1  0  0  0
 20 21  1  0  0  0
 21 22  1  0  0  0
 22 23  1  0  0  0
M  END
>  <Entry>
104

>  <title>
12-3247

>  <rigid docking scores>
-17.8758

>  <InChIKey>
NVILDMSQFQVDOL-UHFFFAOYSA-N

$$$$
atoms 21 bonds 23
dotmatics
mol io
 21 23  0  0  0  0  0  0  0  0999 V2000
   -0.6494    4.4630    0.0000 O   0  0  0  0  0  0  0  0  0  0  0  0
   -1.0629    3.7468    0.0000 C   0  0  0  0  0  0  0  0  0  0  0  0
   -0.6494    3.0306    0.0000 C   0  0  0  0  0  0  0  0  0  0  0  0
    0.1776    3.0306    0.0000 N   0  0  0  0  0  0  0  0  0  0  0  0
    0.6637    3.6997    0.0000 N   0  0  0  0  0  0  0  0  0  0  0  0
    1.4503    3.4441    0.0000 N   0  0  0  0  0  0  0  0  0  0  0  0
    1.4503    2.6171    0.0000 C   0  0  0  0  0  0  0  0  0  0  0  0
    2.1193    2.1310    0.0000 C   0  0  0  0  0  0  0  0  0  0  0  0
    2.8748    2.4674    0.0000 C   0  0  0  0  0  0  0  0  0  0  0  0
    3.5439    1.9813    0.0000 C   0  0  0  0  0  0  0  0  0  0  0  0
    3.4574    1.1588    0.0000 C   0  0  0  0  0  0  0  0  0  0  0  0
    2.7019    0.8225    0.0000 C   0  0  0  0  0  0  0  0  0  0  0  0
    2.6155   -0.0000    0.0000 Cl  0  0  0  0  0  0  0  0  0  0  0  0
    2.0329    1.3086    0.0000 C   0  0  0  0  0  0  0  0  0  0  0  0
    0.6637    2.3616    0.0000 N   0  0  0  0  0  0  0  0  0  0  0  0
   -1.8899    3.7468    0.0000 N   0  0  0  0  0  0  0  0  0  0  0  0
   -2.3034    3.0306    0.0000 C   0  0  0  0  0  0  0  0  0  0  0  0
   -3.1304    3.0306    0.0000 C   0  0  0  0  0  0  0  0  0  0  0  0
   -3.5439    3.7468    0.0000 S   0  0  0  0  0  0  0  0  0  0  0  0
   -3.1304    4.4630    0.0000 C   0  0  0  0  0  0  0  0  0  0  0  0
   -2.3034    4.4630    0.0000 C   0  0  0  0  0  0  0  0  0  0  0  0
  1  2  2  0  0  0
  2  3  1  0  0  0
  3  4  1  0  0  0
  4 15  1  0  0  0
  4  5  1  0  0  0
  5  6  2  0  0  0
  6  7  1  0  0  0
  7  8  1  0  0  0
  8 14  1  0  0  0
  8  9  2  0  0  0
  9 10  1  0  0  0
 10 11  2  0  0  0
 11 12  1  0  0  0
 12 13  1  0  0  0
 12 14  2  0  0  0
  7 15  2  0  0  0
  2 16  1  0  0  0
 16 21  1  0  0  0
 16 17  1  0  0  0
 17 18  1  0  0  0
 18 19  1  0  0  0
 19 20  1  0  0  0
 20 21  1  0  0  0
M  END
>  <Entry>
105

>  <title>
12-3268

>  <rigid docking scores>
-17.3444

>  <InChIKey>
VTGWUGYVVNZYAO-UHFFFAOYSA-N

$$$$
atoms 19 bonds 21
dotmatics
mol io
 19 21  0  0  0  0  0  0  0  0999 V2000
    4.2826   -1.0923    0.0000 C   0  0  0  0  0  0  0  0  0  0  0  0
    4.0302   -0.3048    0.0000 C   0  0  0  0  0  0  0  0  0  0  0  0
    4.5212    0.3638    0.0000 C   0  0  0  0  0  0  0  0  0  0  0  0
    5.3482    0.3638    0.0000 C   0  0  0  0  0  0  0  0  0  0  0  0
    5.7617   -0.3524    0.0000 N   0  0  0  0  0  0  0  0  0  0  0  0
    5.7617    1.0800    0.0000 O   0  0  0  0  0  0  0  0  0  0  0  0
    4.0302    1.0323    0.0000 S   0  0  0  0  0  0  0  0  0  0  0  0
    3.2433    0.7779    0.0000 C   0  0  0  0  0  0  0  0  0  0  0  0
    2.5275    1.1920    0.0000 N   0  0  0  0  0  0  0  0  0  0  0  0
    1.8117    0.7779    0.0000 C   0  0  0  0  0  0  0  0  0  0  0  0
    1.8117   -0.0504    0.0000 N   0  0  0  0  0  0  0  0  0  0  0  0
    2.5275   -0.4645    0.0000 C   0  0  0  0  0  0  0  0  0  0  0  0
    2.5275   -1.2915    0.0000 O   0  0  0  0  0  0  0  0  0  0  0  0
    3.2433   -0.0504    0.0000 C   0  0  0  0  0  0  0  0  0  0  0  0
    1.1634   -0.5657    0.0000 C   0  0  0  0  0  0  0  0  0  0  0  0
    0.3566   -0.3796    0.0000 C   0  0  0  0  0  0  0  0  0  0  0  0
    0.0000    0.3677    0.0000 C   0  0  0  0  0  0  0  0  0  0  0  0
    0.3628    1.1120    0.0000 C   0  0  0  0  0  0  0  0  0  0  0  0
    1.1711    1.2915    0.0000 C   0  0  0  0  0  0  0  0  0  0  0  0
  1  2  1  0  0  0
  2 14  1  0  0  0
  2  3  2  0  0  0
  3  4  1  0  0  0
  4  5  1  0  0  0
  4  6  2  0  0  0
  3  7  1  0  0  0
  7  8  1  0  0  0
  8 14  2  0  0  0
  8  9  1  0  0  0
  9 10  2  0  0  0
 10 19  1  0  0  0
 10 11  1  0  0  0
 11 12  1  0  0  0
 12 13  2  0  0  0
 12 14  1  0  0  0
 11 15  1  0  0  0
 15 16  1  0  0  0
 16 17  1  0  0  0
 17 18  1  0  0  0
 18 19  1  0  0  0
M  END
>  <Entry>
106

>  <title>
12-3363

>  <rigid docking scores>
-17.2392

>  <InChIKey>
PKVRSNWIKKWVQS-UHFFFAOYSA-N

>  <ZINC>
ZINC000003159135

>  <eMolecules>
9920442

>  <Pubchem>
20101215

>  <Mcule>
MCULE-7399011855

$$$$
atoms 21 bonds 23
dotmatics
mol io
 21 23  0  0  0  0  0  0  0  0999 V2000
   -2.8663    3.2983    0.0000 C   0  0  0  0  0  0  0  0  0  0  0  0
   -2.0393    3.2983    0.0000 C   0  0  0  0  0  0  0  0  0  0  0  0
   -1.5532    3.9674    0.0000 C   0  0  0  0  0  0  0  0  0  0  0  0
   -0.7667    3.7118    0.0000 C   0  0  0  0  0  0  0  0  0  0  0  0
   -0.0977    4.1979    0.0000 C   0  0  0  0  0  0  0  0  0  0  0  0
   -0.1841    5.0204    0.0000 O   0  0  0  0  0  0  0  0  0  0  0  0
    0.6578    3.8615    0.0000 N   0  0  0  0  0  0  0  0  0  0  0  0
    1.2887    4.3963    0.0000 C   0  0  0  0  0  0  0  0  0  0  0  0
    2.1001    4.2364    0.0000 C   0  0  0  0  0  0  0  0  0  0  0  0
    2.4811    3.5024    0.0000 C   0  0  0  0  0  0  0  0  0  0  0  0
    2.1447    2.7469    0.0000 N   0  0  0  0  0  0  0  0  0  0  0  0
    2.6794    2.1160    0.0000 C   0  0  0  0  0  0  0  0  0  0  0  0
    2.4005    1.3375    0.0000 C   0  0  0  0  0  0  0  0  0  0  0  0
    2.8663    0.6542    0.0000 C   0  0  0  0  0  0  0  0  0  0  0  0
    2.3604   -0.0000    0.0000 C   0  0  0  0  0  0  0  0  0  0  0  0
    1.5819    0.2790    0.0000 O   0  0  0  0  0  0  0  0  0  0  0  0
    1.6066    1.1056    0.0000 N   0  0  0  0  0  0  0  0  0  0  0  0
    1.3443    2.5388    0.0000 C   0  0  0  0  0  0  0  0  0  0  0  0
    0.6826    3.0349    0.0000 C   0  0  0  0  0  0  0  0  0  0  0  0
   -0.7667    2.8848    0.0000 N   0  0  0  0  0  0  0  0  0  0  0  0
   -1.5532    2.6292    0.0000 O   0  0  0  0  0  0  0  0  0  0  0  0
  1  2  1  0  0  0
  2 21  1  0  0  0
  2  3  2  0  0  0
  3  4  1  0  0  0
  4  5  1  0  0  0
  5  6  2  0  0  0
  5  7  1  0  0  0
  7 19  1  0  0  0
  7  8  1  0  0  0
  8  9  1  0  0  0
  9 10  1  0  0  0
 10 11  1  0  0  0
 11 12  1  0  0  0
 12 13  1  0  0  0
 13 17  2  0  0  0
 13 14  1  0  0  0
 14 15  2  0  0  0
 15 16  1  0  0  0
 16 17  1  0  0  0
 11 18  1  0  0  0
 18 19  1  0  0  0
  4 20  2  0  0  0
 20 21  1  0  0  0
M  END
>  <Entry>
107

>  <title>
12-3392

>  <rigid docking scores>
-16.2336

>  <InChIKey>
OLXLDUONVAADMN-UHFFFAOYSA-N

$$$$
atoms 22 bonds 24
dotmatics
mol io
 22 24  0  0  0  0  0  0  0  0999 V2000
    7.8621   -0.0032    0.0000 C   0  0  0  0  0  0  0  0  0  0  0  0
    7.4492    0.7133    0.0000 C   0  0  0  0  0  0  0  0  0  0  0  0
    7.8634    1.4292    0.0000 O   0  0  0  0  0  0  0  0  0  0  0  0
    6.6222    0.7140    0.0000 N   0  0  0  0  0  0  0  0  0  0  0  0
    6.2081   -0.0018    0.0000 C   0  0  0  0  0  0  0  0  0  0  0  0
    5.3811   -0.0011    0.0000 C   0  0  0  0  0  0  0  0  0  0  0  0
    4.9682    0.7155    0.0000 N   0  0  0  0  0  0  0  0  0  0  0  0
    4.1412    0.7162    0.0000 C   0  0  0  0  0  0  0  0  0  0  0  0
    3.7271    0.0004    0.0000 C   0  0  0  0  0  0  0  0  0  0  0  0
    4.1412   -0.7155    0.0000 C   0  0  0  0  0  0  0  0  0  0  0  0
    3.7271   -1.4313    0.0000 C   0  0  0  0  0  0  0  0  0  0  0  0
    2.8989   -1.4313    0.0000 C   0  0  0  0  0  0  0  0  0  0  0  0
    2.4847   -0.7155    0.0000 C   0  0  0  0  0  0  0  0  0  0  0  0
    1.6565   -0.7155    0.0000 C   0  0  0  0  0  0  0  0  0  0  0  0
    1.2424   -1.4313    0.0000 C   0  0  0  0  0  0  0  0  0  0  0  0
    0.4141   -1.4313    0.0000 C   0  0  0  0  0  0  0  0  0  0  0  0
    0.0000   -0.7155    0.0000 C   0  0  0  0  0  0  0  0  0  0  0  0
    0.4141    0.0004    0.0000 C   0  0  0  0  0  0  0  0  0  0  0  0
    1.2424    0.0004    0.0000 C   0  0  0  0  0  0  0  0  0  0  0  0
    2.8989    0.0004    0.0000 N   0  0  0  0  0  0  0  0  0  0  0  0
    5.3824    1.4313    0.0000 C   0  0  0  0  0  0  0  0  0  0  0  0
    6.2094    1.4306    0.0000 C   0  0  0  0  0  0  0  0  0  0  0  0
  1  2  1  0  0  0
  2  3  2  0  0  0
  2  4  1  0  0  0
  4 22  1  0  0  0
  4  5  1  0  0  0
  5  6  1  0  0  0
  6  7  1  0  0  0
  7  8  1  0  0  0
  8  9  1  0  0  0
  9 20  1  0  0  0
  9 10  2  0  0  0
 10 11  1  0  0  0
 11 12  2  0  0  0
 12 13  1  0  0  0
 13 14  1  0  0  0
 14 19  1  0  0  0
 14 15  2  0  0  0
 15 16  1  0  0  0
 16 17  2  0  0  0
 17 18  1  0  0  0
 18 19  2  0  0  0
 13 20  2  0  0  0
  7 21  1  0  0  0
 21 22  1  0  0  0
M  END
>  <Entry>
108

>  <title>
12-3401

>  <rigid docking scores>
-15.5126

>  <InChIKey>
BNYUVXZBGVVWIS-UHFFFAOYSA-N

$$$$
atoms 20 bonds 22
dotmatics
mol io
 20 22  0  0  0  0  0  0  0  0999 V2000
    5.2554    1.0573    0.0000 C   0  0  0  0  0  0  0  0  0  0  0  0
    4.5392    0.6438    0.0000 O   0  0  0  0  0  0  0  0  0  0  0  0
    4.5392   -0.1832    0.0000 C   0  0  0  0  0  0  0  0  0  0  0  0
    5.2554   -0.5967    0.0000 C   0  0  0  0  0  0  0  0  0  0  0  0
    5.2554   -1.4237    0.0000 C   0  0  0  0  0  0  0  0  0  0  0  0
    4.5392   -1.8372    0.0000 C   0  0  0  0  0  0  0  0  0  0  0  0
    3.8230   -1.4237    0.0000 N   0  0  0  0  0  0  0  0  0  0  0  0
    3.1068   -1.8372    0.0000 C   0  0  0  0  0  0  0  0  0  0  0  0
    2.3906   -1.4237    0.0000 C   0  0  0  0  0  0  0  0  0  0  0  0
    1.6351   -1.7601    0.0000 C   0  0  0  0  0  0  0  0  0  0  0  0
    1.0817   -1.1455    0.0000 S   0  0  0  0  0  0  0  0  0  0  0  0
    1.4952   -0.4293    0.0000 C   0  0  0  0  0  0  0  0  0  0  0  0
    1.1588    0.3262    0.0000 C   0  0  0  0  0  0  0  0  0  0  0  0
    0.3364    0.4127    0.0000 C   0  0  0  0  0  0  0  0  0  0  0  0
    0.0000    1.1682    0.0000 N   0  0  0  0  0  0  0  0  0  0  0  0
    0.4861    1.8372    0.0000 C   0  0  0  0  0  0  0  0  0  0  0  0
    1.3086    1.7508    0.0000 C   0  0  0  0  0  0  0  0  0  0  0  0
    1.6449    0.9953    0.0000 N   0  0  0  0  0  0  0  0  0  0  0  0
    2.3041   -0.6012    0.0000 N   0  0  0  0  0  0  0  0  0  0  0  0
    3.8230   -0.5967    0.0000 C   0  0  0  0  0  0  0  0  0  0  0  0
  1  2  1  0  0  0
  2  3  1  0  0  0
  3 20  1  0  0  0
  3  4  1  0  0  0
  4  5  1  0  0  0
  5  6  1  0  0  0
  6  7  1  0  0  0
  7  8  1  0  0  0
  8  9  1  0  0  0
  9 19  1  0  0  0
  9 10  2  0  0  0
 10 11  1  0  0  0
 11 12  1  0  0  0
 12 13  1  0  0  0
 13 18  1  0  0  0
 13 14  2  0  0  0
 14 15  1  0  0  0
 15 16  2  0  0  0
 16 17  1  0  0  0
 17 18  2  0  0  0
 12 19  2  0  0  0
  7 20  1  0  0  0
M  END
>  <Entry>
109

>  <title>
12-3408

>  <rigid docking scores>
-17.7489

>  <InChIKey>
NPYLFEJLDWRRET-UHFFFAOYSA-N

$$$$
atoms 23 bonds 25
dotmatics
mol io
 23 25  0  0  0  0  0  0  0  0999 V2000
   -3.2027    5.3584    0.0000 C   0  0  0  0  0  0  0  0  0  0  0  0
   -2.3757    5.3584    0.0000 C   0  0  0  0  0  0  0  0  0  0  0  0
   -1.9622    4.6422    0.0000 C   0  0  0  0  0  0  0  0  0  0  0  0
   -1.1352    4.6422    0.0000 N   0  0  0  0  0  0  0  0  0  0  0  0
   -0.7217    5.3584    0.0000 C   0  0  0  0  0  0  0  0  0  0  0  0
    0.1053    5.3584    0.0000 C   0  0  0  0  0  0  0  0  0  0  0  0
    0.5188    4.6422    0.0000 N   0  0  0  0  0  0  0  0  0  0  0  0
    1.3458    4.6422    0.0000 C   0  0  0  0  0  0  0  0  0  0  0  0
    1.7593    5.3584    0.0000 O   0  0  0  0  0  0  0  0  0  0  0  0
    1.7593    3.9260    0.0000 C   0  0  0  0  0  0  0  0  0  0  0  0
    2.5818    3.8396    0.0000 C   0  0  0  0  0  0  0  0  0  0  0  0
    2.7537    3.0306    0.0000 C   0  0  0  0  0  0  0  0  0  0  0  0
    2.0375    2.6171    0.0000 N   0  0  0  0  0  0  0  0  0  0  0  0
    1.9510    1.7947    0.0000 C   0  0  0  0  0  0  0  0  0  0  0  0
    2.6201    1.3086    0.0000 C   0  0  0  0  0  0  0  0  0  0  0  0
    2.5337    0.4861    0.0000 C   0  0  0  0  0  0  0  0  0  0  0  0
    3.2027   -0.0000    0.0000 C   0  0  0  0  0  0  0  0  0  0  0  0
    1.7782    0.1497    0.0000 C   0  0  0  0  0  0  0  0  0  0  0  0
    1.1091    0.6358    0.0000 C   0  0  0  0  0  0  0  0  0  0  0  0
    1.1955    1.4583    0.0000 N   0  0  0  0  0  0  0  0  0  0  0  0
    1.4229    3.1705    0.0000 N   0  0  0  0  0  0  0  0  0  0  0  0
    0.1053    3.9260    0.0000 C   0  0  0  0  0  0  0  0  0  0  0  0
   -0.7217    3.9260    0.0000 C   0  0  0  0  0  0  0  0  0  0  0  0
  1  2  1  0  0  0
  2  3  1  0  0  0
  3  4  1  0  0  0
  4 23  1  0  0  0
  4  5  1  0  0  0
  5  6  1  0  0  0
  6  7  1  0  0  0
  7  8  1  0  0  0
  8  9  2  0  0  0
  8 10  1  0  0  0
 10 21  2  0  0  0
 10 11  1  0  0  0
 11 12  2  0  0  0
 12 13  1  0  0  0
 13 14  1  0  0  0
 14 20  1  0  0  0
 14 15  2  0  0  0
 15 16  1  0  0  0
 16 17  1  0  0  0
 16 18  2  0  0  0
 18 19  1  0  0  0
 19 20  2  0  0  0
 13 21  1  0  0  0
  7 22  1  0  0  0
 22 23  1  0  0  0
M  END
>  <Entry>
110

>  <title>
12-3664

>  <rigid docking scores>
-16.2869

>  <InChIKey>
FDWOZEWFSLIZMW-UHFFFAOYSA-N

$$$$
atoms 22 bonds 24
dotmatics
mol io
 22 24  0  0  0  0  0  0  0  0999 V2000
    4.9682    2.8648    0.0000 C   0  0  0  0  0  0  0  0  0  0  0  0
    4.5541    2.1490    0.0000 C   0  0  0  0  0  0  0  0  0  0  0  0
    4.9682    1.4331    0.0000 C   0  0  0  0  0  0  0  0  0  0  0  0
    4.5541    0.7173    0.0000 C   0  0  0  0  0  0  0  0  0  0  0  0
    4.9682    0.0014    0.0000 C   0  0  0  0  0  0  0  0  0  0  0  0
    4.5554   -0.7151    0.0000 N   0  0  0  0  0  0  0  0  0  0  0  0
    4.9695   -1.4310    0.0000 C   0  0  0  0  0  0  0  0  0  0  0  0
    4.5566   -2.1475    0.0000 C   0  0  0  0  0  0  0  0  0  0  0  0
    3.7296   -2.1482    0.0000 N   0  0  0  0  0  0  0  0  0  0  0  0
    3.3167   -2.8648    0.0000 C   0  0  0  0  0  0  0  0  0  0  0  0
    3.3155   -1.4324    0.0000 C   0  0  0  0  0  0  0  0  0  0  0  0
    3.7284   -0.7158    0.0000 C   0  0  0  0  0  0  0  0  0  0  0  0
    3.7259    0.7173    0.0000 C   0  0  0  0  0  0  0  0  0  0  0  0
    3.3117    1.4331    0.0000 C   0  0  0  0  0  0  0  0  0  0  0  0
    2.4835    1.4331    0.0000 C   0  0  0  0  0  0  0  0  0  0  0  0
    2.0694    0.7173    0.0000 C   0  0  0  0  0  0  0  0  0  0  0  0
    1.2411    0.7173    0.0000 C   0  0  0  0  0  0  0  0  0  0  0  0
    0.8270    1.4331    0.0000 C   0  0  0  0  0  0  0  0  0  0  0  0
    0.0000    1.4331    0.0000 F   0  0  0  0  0  0  0  0  0  0  0  0
    1.2411    2.1490    0.0000 C   0  0  0  0  0  0  0  0  0  0  0  0
    2.0694    2.1490    0.0000 C   0  0  0  0  0  0  0  0  0  0  0  0
    3.7259    2.1490    0.0000 N   0  0  0  0  0  0  0  0  0  0  0  0
  1  2  1  0  0  0
  2 22  1  0  0  0
  2  3  2  0  0  0
  3  4  1  0  0  0
  4  5  1  0  0  0
  5  6  1  0  0  0
  6 12  1  0  0  0
  6  7  1  0  0  0
  7  8  1  0  0  0
  8  9  1  0  0  0
  9 10  1  0  0  0
  9 11  1  0  0  0
 11 12  1  0  0  0
  4 13  2  0  0  0
 13 14  1  0  0  0
 14 15  1  0  0  0
 15 21  1  0  0  0
 15 16  2  0  0  0
 16 17  1  0  0  0
 17 18  2  0  0  0
 18 19  1  0  0  0
 18 20  1  0  0  0
 20 21  2  0  0  0
 14 22  2  0  0  0
M  END
>  <Entry>
111

>  <title>
12-3739

>  <rigid docking scores>
-17.8946

>  <InChIKey>
BKQNFBWFHVLTNI-UHFFFAOYSA-N

$$$$
atoms 24 bonds 27
dotmatics
mol io
 24 27  0  0  0  0  0  0  0  0999 V2000
    1.0601   -0.0000    0.0000 O   0  0  0  0  0  0  0  0  0  0  0  0
    1.4736    0.7162    0.0000 C   0  0  0  0  0  0  0  0  0  0  0  0
    2.3006    0.7162    0.0000 N   0  0  0  0  0  0  0  0  0  0  0  0
    2.7141    1.4324    0.0000 C   0  0  0  0  0  0  0  0  0  0  0  0
    3.5411    1.4324    0.0000 C   0  0  0  0  0  0  0  0  0  0  0  0
    3.9546    0.7162    0.0000 C   0  0  0  0  0  0  0  0  0  0  0  0
    3.5411   -0.0000    0.0000 C   0  0  0  0  0  0  0  0  0  0  0  0
    2.7141   -0.0000    0.0000 C   0  0  0  0  0  0  0  0  0  0  0  0
    1.0601    1.4324    0.0000 N   0  0  0  0  0  0  0  0  0  0  0  0
    0.2613    1.6464    0.0000 C   0  0  0  0  0  0  0  0  0  0  0  0
    0.4753    2.4453    0.0000 C   0  0  0  0  0  0  0  0  0  0  0  0
    0.0618    3.1615    0.0000 C   0  0  0  0  0  0  0  0  0  0  0  0
   -0.7606    3.2479    0.0000 N   0  0  0  0  0  0  0  0  0  0  0  0
   -0.9326    4.0568    0.0000 C   0  0  0  0  0  0  0  0  0  0  0  0
   -1.6881    4.3932    0.0000 C   0  0  0  0  0  0  0  0  0  0  0  0
   -2.3572    3.9071    0.0000 C   0  0  0  0  0  0  0  0  0  0  0  0
   -3.1127    4.2435    0.0000 C   0  0  0  0  0  0  0  0  0  0  0  0
   -3.1991    5.0660    0.0000 C   0  0  0  0  0  0  0  0  0  0  0  0
   -3.9546    5.4023    0.0000 F   0  0  0  0  0  0  0  0  0  0  0  0
   -2.5300    5.5521    0.0000 C   0  0  0  0  0  0  0  0  0  0  0  0
   -1.7745    5.2157    0.0000 C   0  0  0  0  0  0  0  0  0  0  0  0
   -0.2164    4.4703    0.0000 N   0  0  0  0  0  0  0  0  0  0  0  0
    0.3982    3.9170    0.0000 O   0  0  0  0  0  0  0  0  0  0  0  0
    1.2741    2.2312    0.0000 C   0  0  0  0  0  0  0  0  0  0  0  0
  1  2  2  0  0  0
  2  3  1  0  0  0
  3  8  1  0  0  0
  3  4  1  0  0  0
  4  5  1  0  0  0
  5  6  1  0  0  0
  6  7  1  0  0  0
  7  8  1  0  0  0
  2  9  1  0  0  0
  9 24  1  0  0  0
  9 10  1  0  0  0
 10 11  1  0  0  0
 11 12  1  0  0  0
 12 23  1  0  0  0
 12 13  2  0  0  0
 13 14  1  0  0  0
 14 15  1  0  0  0
 15 21  1  0  0  0
 15 16  2  0  0  0
 16 17  1  0  0  0
 17 18  2  0  0  0
 18 19  1  0  0  0
 18 20  1  0  0  0
 20 21  2  0  0  0
 14 22  2  0  0  0
 22 23  1  0  0  0
 11 24  1  0  0  0
M  END
>  <Entry>
112

>  <title>
12-4200

>  <rigid docking scores>
-15.6712

>  <InChIKey>
VOSUVEVSUNYAEC-UHFFFAOYSA-N

$$$$
atoms 21 bonds 23
dotmatics
mol io
 21 23  0  0  0  0  0  0  0  0999 V2000
   -3.2456    4.0088    0.0000 C   0  0  0  0  0  0  0  0  0  0  0  0
   -2.4186    4.0088    0.0000 C   0  0  0  0  0  0  0  0  0  0  0  0
   -2.0051    4.7250    0.0000 C   0  0  0  0  0  0  0  0  0  0  0  0
   -1.1781    4.7250    0.0000 C   0  0  0  0  0  0  0  0  0  0  0  0
   -0.7646    4.0088    0.0000 C   0  0  0  0  0  0  0  0  0  0  0  0
    0.0624    4.0088    0.0000 N   0  0  0  0  0  0  0  0  0  0  0  0
    0.4759    3.2926    0.0000 C   0  0  0  0  0  0  0  0  0  0  0  0
    0.0624    2.5764    0.0000 O   0  0  0  0  0  0  0  0  0  0  0  0
    1.3029    3.2926    0.0000 C   0  0  0  0  0  0  0  0  0  0  0  0
    1.7890    3.9616    0.0000 C   0  0  0  0  0  0  0  0  0  0  0  0
    2.5755    3.7061    0.0000 C   0  0  0  0  0  0  0  0  0  0  0  0
    2.5755    2.8791    0.0000 C   0  0  0  0  0  0  0  0  0  0  0  0
    1.7890    2.6235    0.0000 C   0  0  0  0  0  0  0  0  0  0  0  0
    1.5334    1.8370    0.0000 C   0  0  0  0  0  0  0  0  0  0  0  0
    2.0868    1.2224    0.0000 N   0  0  0  0  0  0  0  0  0  0  0  0
    2.9093    1.3089    0.0000 C   0  0  0  0  0  0  0  0  0  0  0  0
    3.2456    0.5534    0.0000 N   0  0  0  0  0  0  0  0  0  0  0  0
    2.6310   -0.0000    0.0000 C   0  0  0  0  0  0  0  0  0  0  0  0
    1.9148    0.4135    0.0000 N   0  0  0  0  0  0  0  0  0  0  0  0
   -1.1781    3.2926    0.0000 C   0  0  0  0  0  0  0  0  0  0  0  0
   -2.0051    3.2926    0.0000 C   0  0  0  0  0  0  0  0  0  0  0  0
  1  2  1  0  0  0
  2 21  1  0  0  0
  2  3  2  0  0  0
  3  4  1  0  0  0
  4  5  2  0  0  0
  5  6  1  0  0  0
  6  7  1  0  0  0
  7  8  2  0  0  0
  7  9  1  0  0  0
  9 13  1  0  0  0
  9 10  1  0  0  0
 10 11  1  0  0  0
 11 12  1  0  0  0
 12 13  1  0  0  0
 13 14  1  0  0  0
 14 15  1  0  0  0
 15 19  1  0  0  0
 15 16  1  0  0  0
 16 17  2  0  0  0
 17 18  1  0  0  0
 18 19  2  0  0  0
  5 20  1  0  0  0
 20 21  2  0  0  0
M  END
>  <Entry>
113

>  <title>
12-4488

>  <rigid docking scores>
-16.2925

>  <InChIKey>
WXQGFOWAJBIVDJ-UHFFFAOYSA-N

$$$$
atoms 19 bonds 21
dotmatics
mol io
 19 21  0  0  0  0  0  0  0  0999 V2000
    2.0251    0.8270    0.0000 O   0  0  0  0  0  0  0  0  0  0  0  0
    2.7413    0.4135    0.0000 C   0  0  0  0  0  0  0  0  0  0  0  0
    2.7413   -0.4135    0.0000 C   0  0  0  0  0  0  0  0  0  0  0  0
    3.4575   -0.8270    0.0000 C   0  0  0  0  0  0  0  0  0  0  0  0
    3.4575   -1.6540    0.0000 C   0  0  0  0  0  0  0  0  0  0  0  0
    2.7413   -2.0675    0.0000 C   0  0  0  0  0  0  0  0  0  0  0  0
    2.0251   -1.6540    0.0000 N   0  0  0  0  0  0  0  0  0  0  0  0
    2.0251   -0.8270    0.0000 C   0  0  0  0  0  0  0  0  0  0  0  0
    1.3089   -0.4135    0.0000 N   0  0  0  0  0  0  0  0  0  0  0  0
    0.5534   -0.7499    0.0000 C   0  0  0  0  0  0  0  0  0  0  0  0
    0.0000   -0.1353    0.0000 C   0  0  0  0  0  0  0  0  0  0  0  0
    0.4135    0.5809    0.0000 C   0  0  0  0  0  0  0  0  0  0  0  0
    1.2224    0.4090    0.0000 N   0  0  0  0  0  0  0  0  0  0  0  0
    3.4575    0.8270    0.0000 N   0  0  0  0  0  0  0  0  0  0  0  0
    3.4575    1.6540    0.0000 C   0  0  0  0  0  0  0  0  0  0  0  0
    4.1737    2.0675    0.0000 C   0  0  0  0  0  0  0  0  0  0  0  0
    4.8899    1.6540    0.0000 C   0  0  0  0  0  0  0  0  0  0  0  0
    4.8899    0.8270    0.0000 C   0  0  0  0  0  0  0  0  0  0  0  0
    4.1737    0.4135    0.0000 C   0  0  0  0  0  0  0  0  0  0  0  0
  1  2  2  0  0  0
  2  3  1  0  0  0
  3  8  1  0  0  0
  3  4  2  0  0  0
  4  5  1  0  0  0
  5  6  2  0  0  0
  6  7  1  0  0  0
  7  8  2  0  0  0
  8  9  1  0  0  0
  9 13  1  0  0  0
  9 10  1  0  0  0
 10 11  2  0  0  0
 11 12  1  0  0  0
 12 13  2  0  0  0
  2 14  1  0  0  0
 14 19  1  0  0  0
 14 15  1  0  0  0
 15 16  1  0  0  0
 16 17  1  0  0  0
 17 18  1  0  0  0
 18 19  1  0  0  0
M  END
>  <Entry>
114

>  <title>
12-4622

>  <rigid docking scores>
-15.4486

>  <InChIKey>
PJTURQUJQAPKPE-UHFFFAOYSA-N

>  <Pubchem>
145092579

>  <Mcule>
MCULE-3961811092

$$$$
atoms 20 bonds 22
dotmatics
mol io
 20 22  0  0  0  0  0  0  0  0999 V2000
    5.0359    2.0482    0.0000 C   0  0  0  0  0  0  0  0  0  0  0  0
    4.3168    1.6399    0.0000 C   0  0  0  0  0  0  0  0  0  0  0  0
    4.3109    0.8129    0.0000 C   0  0  0  0  0  0  0  0  0  0  0  0
    3.5917    0.4045    0.0000 C   0  0  0  0  0  0  0  0  0  0  0  0
    2.8785    0.8231    0.0000 C   0  0  0  0  0  0  0  0  0  0  0  0
    2.1594    0.4148    0.0000 C   0  0  0  0  0  0  0  0  0  0  0  0
    1.4461    0.8334    0.0000 O   0  0  0  0  0  0  0  0  0  0  0  0
    2.1534   -0.4122    0.0000 N   0  0  0  0  0  0  0  0  0  0  0  0
    2.8693   -0.8263    0.0000 C   0  0  0  0  0  0  0  0  0  0  0  0
    2.8693   -1.6546    0.0000 C   0  0  0  0  0  0  0  0  0  0  0  0
    2.1534   -2.0687    0.0000 O   0  0  0  0  0  0  0  0  0  0  0  0
    1.4317   -1.6546    0.0000 C   0  0  0  0  0  0  0  0  0  0  0  0
    0.7158   -2.0687    0.0000 N   0  0  0  0  0  0  0  0  0  0  0  0
    0.0000   -1.6546    0.0000 C   0  0  0  0  0  0  0  0  0  0  0  0
    0.0000   -0.8263    0.0000 C   0  0  0  0  0  0  0  0  0  0  0  0
    0.7158   -0.4122    0.0000 C   0  0  0  0  0  0  0  0  0  0  0  0
    1.4317   -0.8263    0.0000 C   0  0  0  0  0  0  0  0  0  0  0  0
    2.8844    1.6501    0.0000 C   0  0  0  0  0  0  0  0  0  0  0  0
    2.1712    2.0687    0.0000 O   0  0  0  0  0  0  0  0  0  0  0  0
    3.6035    2.0585    0.0000 C   0  0  0  0  0  0  0  0  0  0  0  0
  1  2  1  0  0  0
  2 20  1  0  0  0
  2  3  2  0  0  0
  3  4  1  0  0  0
  4  5  2  0  0  0
  5  6  1  0  0  0
  6  7  2  0  0  0
  6  8  1  0  0  0
  8 17  1  0  0  0
  8  9  1  0  0  0
  9 10  1  0  0  0
 10 11  1  0  0  0
 11 12  1  0  0  0
 12 17  1  0  0  0
 12 13  2  0  0  0
 13 14  1  0  0  0
 14 15  2  0  0  0
 15 16  1  0  0  0
 16 17  2  0  0  0
  5 18  1  0  0  0
 18 19  1  0  0  0
 18 20  2  0  0  0
M  END
>  <Entry>
115

>  <title>
12-4635

>  <rigid docking scores>
-16.6501

>  <InChIKey>
NVKABDZAZBXDMW-UHFFFAOYSA-N

$$$$
atoms 20 bonds 22
dotmatics
mol io
 20 22  0  0  0  0  0  0  0  0999 V2000
   -3.2612    4.1779    0.0000 C   0  0  0  0  0  0  0  0  0  0  0  0
   -2.4342    4.1779    0.0000 C   0  0  0  0  0  0  0  0  0  0  0  0
   -1.9481    4.8470    0.0000 C   0  0  0  0  0  0  0  0  0  0  0  0
   -1.1615    4.5914    0.0000 C   0  0  0  0  0  0  0  0  0  0  0  0
   -1.1615    3.7644    0.0000 C   0  0  0  0  0  0  0  0  0  0  0  0
   -0.4925    3.2783    0.0000 C   0  0  0  0  0  0  0  0  0  0  0  0
    0.2941    3.5339    0.0000 N   0  0  0  0  0  0  0  0  0  0  0  0
    0.7802    2.8648    0.0000 C   0  0  0  0  0  0  0  0  0  0  0  0
    1.6072    2.8648    0.0000 C   0  0  0  0  0  0  0  0  0  0  0  0
    2.0207    2.1486    0.0000 N   0  0  0  0  0  0  0  0  0  0  0  0
    2.8477    2.1486    0.0000 C   0  0  0  0  0  0  0  0  0  0  0  0
    3.2612    1.4324    0.0000 C   0  0  0  0  0  0  0  0  0  0  0  0
    2.8477    0.7162    0.0000 C   0  0  0  0  0  0  0  0  0  0  0  0
    2.0207    0.7162    0.0000 N   0  0  0  0  0  0  0  0  0  0  0  0
    1.6072   -0.0000    0.0000 C   0  0  0  0  0  0  0  0  0  0  0  0
    1.6072    1.4324    0.0000 C   0  0  0  0  0  0  0  0  0  0  0  0
    0.7802    1.4324    0.0000 O   0  0  0  0  0  0  0  0  0  0  0  0
    0.2941    2.1958    0.0000 C   0  0  0  0  0  0  0  0  0  0  0  0
   -0.4925    2.4513    0.0000 S   0  0  0  0  0  0  0  0  0  0  0  0
   -1.9481    3.5089    0.0000 O   0  0  0  0  0  0  0  0  0  0  0  0
  1  2  1  0  0  0
  2 20  1  0  0  0
  2  3  2  0  0  0
  3  4  1  0  0  0
  4  5  2  0  0  0
  5  6  1  0  0  0
  6 19  1  0  0  0
  6  7  2  0  0  0
  7  8  1  0  0  0
  8  9  1  0  0  0
  9 10  1  0  0  0
 10 16  1  0  0  0
 10 11  1  0  0  0
 11 12  1  0  0  0
 12 13  1  0  0  0
 13 14  1  0  0  0
 14 15  1  0  0  0
 14 16  1  0  0  0
 16 17  2  0  0  0
  8 18  2  0  0  0
 18 19  1  0  0  0
  5 20  1  0  0  0
M  END
>  <Entry>
116

>  <title>
12-4695

>  <rigid docking scores>
-15.5856

>  <InChIKey>
XWESNTAHCJCCML-UHFFFAOYSA-N

$$$$
atoms 20 bonds 22
dotmatics
mol io
 20 22  0  0  0  0  0  0  0  0999 V2000
    4.4925    2.3580    0.0000 C   0  0  0  0  0  0  0  0  0  0  0  0
    4.4925    1.5310    0.0000 N   0  0  0  0  0  0  0  0  0  0  0  0
    5.2087    1.1175    0.0000 C   0  0  0  0  0  0  0  0  0  0  0  0
    5.2087    0.2905    0.0000 C   0  0  0  0  0  0  0  0  0  0  0  0
    4.4925   -0.1230    0.0000 N   0  0  0  0  0  0  0  0  0  0  0  0
    4.4925   -0.9500    0.0000 C   0  0  0  0  0  0  0  0  0  0  0  0
    3.7763   -1.3635    0.0000 C   0  0  0  0  0  0  0  0  0  0  0  0
    3.6898   -2.1860    0.0000 C   0  0  0  0  0  0  0  0  0  0  0  0
    2.8809   -2.3580    0.0000 O   0  0  0  0  0  0  0  0  0  0  0  0
    2.4674   -1.6418    0.0000 C   0  0  0  0  0  0  0  0  0  0  0  0
    1.6449   -1.5553    0.0000 C   0  0  0  0  0  0  0  0  0  0  0  0
    1.1588   -2.2244    0.0000 C   0  0  0  0  0  0  0  0  0  0  0  0
    0.3364   -2.1379    0.0000 C   0  0  0  0  0  0  0  0  0  0  0  0
    0.0000   -1.3824    0.0000 C   0  0  0  0  0  0  0  0  0  0  0  0
    0.4861   -0.7134    0.0000 C   0  0  0  0  0  0  0  0  0  0  0  0
    1.3086   -0.7998    0.0000 C   0  0  0  0  0  0  0  0  0  0  0  0
    1.7947   -0.1307    0.0000 Cl  0  0  0  0  0  0  0  0  0  0  0  0
    3.0208   -1.0272    0.0000 N   0  0  0  0  0  0  0  0  0  0  0  0
    3.7763    0.2905    0.0000 C   0  0  0  0  0  0  0  0  0  0  0  0
    3.7763    1.1175    0.0000 C   0  0  0  0  0  0  0  0  0  0  0  0
  1  2  1  0  0  0
  2 20  1  0  0  0
  2  3  1  0  0  0
  3  4  1  0  0  0
  4  5  1  0  0  0
  5  6  1  0  0  0
  6  7  1  0  0  0
  7 18  1  0  0  0
  7  8  2  0  0  0
  8  9  1  0  0  0
  9 10  1  0  0  0
 10 11  1  0  0  0
 11 16  1  0  0  0
 11 12  2  0  0  0
 12 13  1  0  0  0
 13 14  2  0  0  0
 14 15  1  0  0  0
 15 16  2  0  0  0
 16 17  1  0  0  0
 10 18  2  0  0  0
  5 19  1  0  0  0
 19 20  1  0  0  0
M  END
>  <Entry>
117

>  <title>
12-4698

>  <rigid docking scores>
-17.2564

>  <InChIKey>
NWPHIWPXALETNH-UHFFFAOYSA-N

$$$$
atoms 17 bonds 19
dotmatics
mol io
 17 19  0  0  0  0  0  0  0  0999 V2000
    4.7844    1.6072    0.0000 C   0  0  0  0  0  0  0  0  0  0  0  0
    5.4534    1.1211    0.0000 C   0  0  0  0  0  0  0  0  0  0  0  0
    5.1979    0.3345    0.0000 S   0  0  0  0  0  0  0  0  0  0  0  0
    4.3709    0.3345    0.0000 C   0  0  0  0  0  0  0  0  0  0  0  0
    3.8848   -0.3345    0.0000 C   0  0  0  0  0  0  0  0  0  0  0  0
    4.1403   -1.1211    0.0000 N   0  0  0  0  0  0  0  0  0  0  0  0
    3.4713   -1.6072    0.0000 C   0  0  0  0  0  0  0  0  0  0  0  0
    2.8022   -1.1211    0.0000 C   0  0  0  0  0  0  0  0  0  0  0  0
    2.0157   -1.3766    0.0000 C   0  0  0  0  0  0  0  0  0  0  0  0
    1.4011   -0.8232    0.0000 N   0  0  0  0  0  0  0  0  0  0  0  0
    0.6146   -1.0788    0.0000 C   0  0  0  0  0  0  0  0  0  0  0  0
    0.0000   -0.5254    0.0000 C   0  0  0  0  0  0  0  0  0  0  0  0
    0.1719    0.2835    0.0000 N   0  0  0  0  0  0  0  0  0  0  0  0
    0.9585    0.5391    0.0000 C   0  0  0  0  0  0  0  0  0  0  0  0
    1.5730   -0.0143    0.0000 C   0  0  0  0  0  0  0  0  0  0  0  0
    3.0578   -0.3345    0.0000 S   0  0  0  0  0  0  0  0  0  0  0  0
    4.1153    1.1211    0.0000 C   0  0  0  0  0  0  0  0  0  0  0  0
  1 17  1  0  0  0
  1  2  2  0  0  0
  2  3  1  0  0  0
  3  4  1  0  0  0
  4  5  1  0  0  0
  5 16  1  0  0  0
  5  6  2  0  0  0
  6  7  1  0  0  0
  7  8  2  0  0  0
  8  9  1  0  0  0
  9 10  1  0  0  0
 10 15  1  0  0  0
 10 11  1  0  0  0
 11 12  1  0  0  0
 12 13  1  0  0  0
 13 14  1  0  0  0
 14 15  1  0  0  0
  8 16  1  0  0  0
  4 17  2  0  0  0
M  END
>  <Entry>
118

>  <title>
12-4746

>  <rigid docking scores>
-19.7132

>  <InChIKey>
UPKACOMVDFNJCQ-UHFFFAOYSA-N

>  <Pubchem>
82191290

$$$$
atoms 20 bonds 22
dotmatics
mol io
 20 22  0  0  0  0  0  0  0  0999 V2000
    5.2087    2.5647    0.0000 C   0  0  0  0  0  0  0  0  0  0  0  0
    4.4925    2.1512    0.0000 C   0  0  0  0  0  0  0  0  0  0  0  0
    4.4925    1.3242    0.0000 N   0  0  0  0  0  0  0  0  0  0  0  0
    5.2087    0.9107    0.0000 C   0  0  0  0  0  0  0  0  0  0  0  0
    5.2087    0.0837    0.0000 C   0  0  0  0  0  0  0  0  0  0  0  0
    4.4925   -0.3298    0.0000 N   0  0  0  0  0  0  0  0  0  0  0  0
    4.4925   -1.1568    0.0000 C   0  0  0  0  0  0  0  0  0  0  0  0
    3.7763   -1.5703    0.0000 C   0  0  0  0  0  0  0  0  0  0  0  0
    3.6898   -2.3928    0.0000 C   0  0  0  0  0  0  0  0  0  0  0  0
    2.8809   -2.5647    0.0000 S   0  0  0  0  0  0  0  0  0  0  0  0
    2.4674   -1.8485    0.0000 C   0  0  0  0  0  0  0  0  0  0  0  0
    1.6449   -1.7621    0.0000 C   0  0  0  0  0  0  0  0  0  0  0  0
    1.1588   -2.4311    0.0000 C   0  0  0  0  0  0  0  0  0  0  0  0
    0.3364   -2.3447    0.0000 N   0  0  0  0  0  0  0  0  0  0  0  0
    0.0000   -1.5892    0.0000 C   0  0  0  0  0  0  0  0  0  0  0  0
    0.4861   -0.9201    0.0000 C   0  0  0  0  0  0  0  0  0  0  0  0
    1.3086   -1.0066    0.0000 N   0  0  0  0  0  0  0  0  0  0  0  0
    3.0208   -1.2339    0.0000 N   0  0  0  0  0  0  0  0  0  0  0  0
    3.7763    0.0837    0.0000 C   0  0  0  0  0  0  0  0  0  0  0  0
    3.7763    0.9107    0.0000 C   0  0  0  0  0  0  0  0  0  0  0  0
  1  2  1  0  0  0
  2  3  1  0  0  0
  3 20  1  0  0  0
  3  4  1  0  0  0
  4  5  1  0  0  0
  5  6  1  0  0  0
  6  7  1  0  0  0
  7  8  1  0  0  0
  8 18  1  0  0  0
  8  9  2  0  0  0
  9 10  1  0  0  0
 10 11  1  0  0  0
 11 12  1  0  0  0
 12 17  1  0  0  0
 12 13  2  0  0  0
 13 14  1  0  0  0
 14 15  2  0  0  0
 15 16  1  0  0  0
 16 17  2  0  0  0
 11 18  2  0  0  0
  6 19  1  0  0  0
 19 20  1  0  0  0
M  END
>  <Entry>
119

>  <title>
12-4753

>  <rigid docking scores>
-15.3041

>  <InChIKey>
DYFVMCFNPWJAQO-UHFFFAOYSA-N

$$$$
atoms 20 bonds 22
dotmatics
mol io
 20 22  0  0  0  0  0  0  0  0999 V2000
    3.5366   -1.9457    0.0000 C   0  0  0  0  0  0  0  0  0  0  0  0
    2.7096   -1.9457    0.0000 C   0  0  0  0  0  0  0  0  0  0  0  0
    2.2185   -2.6142    0.0000 N   0  0  0  0  0  0  0  0  0  0  0  0
    1.4317   -2.3598    0.0000 C   0  0  0  0  0  0  0  0  0  0  0  0
    0.7158   -2.7739    0.0000 C   0  0  0  0  0  0  0  0  0  0  0  0
    0.0000   -2.3598    0.0000 C   0  0  0  0  0  0  0  0  0  0  0  0
    0.0000   -1.5315    0.0000 C   0  0  0  0  0  0  0  0  0  0  0  0
    0.7158   -1.1174    0.0000 C   0  0  0  0  0  0  0  0  0  0  0  0
    1.4317   -1.5315    0.0000 C   0  0  0  0  0  0  0  0  0  0  0  0
    2.2185   -1.2771    0.0000 N   0  0  0  0  0  0  0  0  0  0  0  0
    2.4709   -0.4896    0.0000 C   0  0  0  0  0  0  0  0  0  0  0  0
    3.2792   -0.3144    0.0000 C   0  0  0  0  0  0  0  0  0  0  0  0
    3.5316    0.4731    0.0000 C   0  0  0  0  0  0  0  0  0  0  0  0
    2.9758    1.0855    0.0000 O   0  0  0  0  0  0  0  0  0  0  0  0
    4.3398    0.6483    0.0000 N   0  0  0  0  0  0  0  0  0  0  0  0
    4.5922    1.4358    0.0000 C   0  0  0  0  0  0  0  0  0  0  0  0
    4.1035    2.1029    0.0000 C   0  0  0  0  0  0  0  0  0  0  0  0
    4.5869    2.7739    0.0000 C   0  0  0  0  0  0  0  0  0  0  0  0
    5.3744    2.5215    0.0000 C   0  0  0  0  0  0  0  0  0  0  0  0
    5.3777    1.6945    0.0000 C   0  0  0  0  0  0  0  0  0  0  0  0
  1  2  1  0  0  0
  2 10  1  0  0  0
  2  3  2  0  0  0
  3  4  1  0  0  0
  4  9  1  0  0  0
  4  5  2  0  0  0
  5  6  1  0  0  0
  6  7  2  0  0  0
  7  8  1  0  0  0
  8  9  2  0  0  0
  9 10  1  0  0  0
 10 11  1  0  0  0
 11 12  1  0  0  0
 12 13  1  0  0  0
 13 14  2  0  0  0
 13 15  1  0  0  0
 15 16  1  0  0  0
 16 20  1  0  0  0
 16 17  1  0  0  0
 17 18  1  0  0  0
 18 19  1  0  0  0
 19 20  1  0  0  0
M  END
>  <Entry>
120

>  <title>
12-5084

>  <rigid docking scores>
-16.3824

>  <InChIKey>
JDRUFKCGCHBDHO-UHFFFAOYSA-N

$$$$
atoms 24 bonds 26
dotmatics
mol io
 24 26  0  0  0  0  0  0  0  0999 V2000
    8.6897    1.4324    0.0000 C   0  0  0  0  0  0  0  0  0  0  0  0
    7.8627    1.4324    0.0000 O   0  0  0  0  0  0  0  0  0  0  0  0
    7.4492    0.7162    0.0000 C   0  0  0  0  0  0  0  0  0  0  0  0
    7.8627    0.0000    0.0000 C   0  0  0  0  0  0  0  0  0  0  0  0
    7.4492   -0.7162    0.0000 C   0  0  0  0  0  0  0  0  0  0  0  0
    7.8627   -1.4324    0.0000 C   0  0  0  0  0  0  0  0  0  0  0  0
    6.6222   -0.7162    0.0000 C   0  0  0  0  0  0  0  0  0  0  0  0
    6.2087    0.0000    0.0000 C   0  0  0  0  0  0  0  0  0  0  0  0
    5.3817    0.0000    0.0000 O   0  0  0  0  0  0  0  0  0  0  0  0
    4.9682    0.7162    0.0000 C   0  0  0  0  0  0  0  0  0  0  0  0
    4.1412    0.7162    0.0000 C   0  0  0  0  0  0  0  0  0  0  0  0
    3.7271    0.0004    0.0000 C   0  0  0  0  0  0  0  0  0  0  0  0
    2.8989    0.0004    0.0000 C   0  0  0  0  0  0  0  0  0  0  0  0
    2.4847    0.7162    0.0000 N   0  0  0  0  0  0  0  0  0  0  0  0
    1.6565    0.7162    0.0000 C   0  0  0  0  0  0  0  0  0  0  0  0
    1.2424    0.0004    0.0000 C   0  0  0  0  0  0  0  0  0  0  0  0
    0.4141    0.0004    0.0000 C   0  0  0  0  0  0  0  0  0  0  0  0
    0.0000   -0.7155    0.0000 N   0  0  0  0  0  0  0  0  0  0  0  0
    0.0000    0.7162    0.0000 N   0  0  0  0  0  0  0  0  0  0  0  0
    0.4141    1.4320    0.0000 C   0  0  0  0  0  0  0  0  0  0  0  0
    1.2424    1.4320    0.0000 N   0  0  0  0  0  0  0  0  0  0  0  0
    2.8989    1.4320    0.0000 C   0  0  0  0  0  0  0  0  0  0  0  0
    3.7271    1.4320    0.0000 C   0  0  0  0  0  0  0  0  0  0  0  0
    6.6222    0.7162    0.0000 C   0  0  0  0  0  0  0  0  0  0  0  0
  1  2  1  0  0  0
  2  3  1  0  0  0
  3 24  1  0  0  0
  3  4  2  0  0  0
  4  5  1  0  0  0
  5  6  1  0  0  0
  5  7  2  0  0  0
  7  8  1  0  0  0
  8  9  1  0  0  0
  9 10  1  0  0  0
 10 11  1  0  0  0
 11 23  1  0  0  0
 11 12  1  0  0  0
 12 13  1  0  0  0
 13 14  1  0  0  0
 14 15  1  0  0  0
 15 21  1  0  0  0
 15 16  2  0  0  0
 16 17  1  0  0  0
 17 18  1  0  0  0
 17 19  2  0  0  0
 19 20  1  0  0  0
 20 21  2  0  0  0
 14 22  1  0  0  0
 22 23  1  0  0  0
  8 24  2  0  0  0
M  END
>  <Entry>
121

>  <title>
12-5879

>  <rigid docking scores>
-16.4626

>  <InChIKey>
YKIOMYFHFGBKRL-UHFFFAOYSA-N

$$$$
atoms 23 bonds 25
dotmatics
mol io
 23 25  0  0  0  0  0  0  0  0999 V2000
    1.6627   -2.1501    0.0000 C   0  0  0  0  0  0  0  0  0  0  0  0
    2.4897   -2.1493    0.0000 O   0  0  0  0  0  0  0  0  0  0  0  0
    2.9026   -1.4328    0.0000 C   0  0  0  0  0  0  0  0  0  0  0  0
    2.4885   -0.7169    0.0000 C   0  0  0  0  0  0  0  0  0  0  0  0
    2.9014   -0.0004    0.0000 C   0  0  0  0  0  0  0  0  0  0  0  0
    3.7284    0.0004    0.0000 C   0  0  0  0  0  0  0  0  0  0  0  0
    4.1412    0.7169    0.0000 N   0  0  0  0  0  0  0  0  0  0  0  0
    3.7271    1.4328    0.0000 C   0  0  0  0  0  0  0  0  0  0  0  0
    2.8989    1.4328    0.0000 C   0  0  0  0  0  0  0  0  0  0  0  0
    2.4847    2.1486    0.0000 C   0  0  0  0  0  0  0  0  0  0  0  0
    1.6565    2.1486    0.0000 C   0  0  0  0  0  0  0  0  0  0  0  0
    1.2424    1.4328    0.0000 C   0  0  0  0  0  0  0  0  0  0  0  0
    0.4141    1.4328    0.0000 C   0  0  0  0  0  0  0  0  0  0  0  0
    0.0000    2.1486    0.0000 C   0  0  0  0  0  0  0  0  0  0  0  0
    0.4141    2.8645    0.0000 N   0  0  0  0  0  0  0  0  0  0  0  0
    1.2424    2.8645    0.0000 C   0  0  0  0  0  0  0  0  0  0  0  0
    2.8989    2.8645    0.0000 N   0  0  0  0  0  0  0  0  0  0  0  0
    3.7271    2.8645    0.0000 C   0  0  0  0  0  0  0  0  0  0  0  0
    4.1412    2.1486    0.0000 N   0  0  0  0  0  0  0  0  0  0  0  0
    4.1425   -0.7155    0.0000 C   0  0  0  0  0  0  0  0  0  0  0  0
    3.7296   -1.4320    0.0000 C   0  0  0  0  0  0  0  0  0  0  0  0
    4.1437   -2.1479    0.0000 O   0  0  0  0  0  0  0  0  0  0  0  0
    3.7309   -2.8645    0.0000 C   0  0  0  0  0  0  0  0  0  0  0  0
  1  2  1  0  0  0
  2  3  1  0  0  0
  3 21  1  0  0  0
  3  4  2  0  0  0
  4  5  1  0  0  0
  5  6  2  0  0  0
  6  7  1  0  0  0
  7  8  1  0  0  0
  8 19  1  0  0  0
  8  9  2  0  0  0
  9 10  1  0  0  0
 10 11  1  0  0  0
 11 16  1  0  0  0
 11 12  2  0  0  0
 12 13  1  0  0  0
 13 14  2  0  0  0
 14 15  1  0  0  0
 15 16  2  0  0  0
 10 17  2  0  0  0
 17 18  1  0  0  0
 18 19  2  0  0  0
  6 20  1  0  0  0
 20 21  2  0  0  0
 21 22  1  0  0  0
 22 23  1  0  0  0
M  END
>  <Entry>
122

>  <title>
12-5905

>  <rigid docking scores>
-15.5042

>  <InChIKey>
FAYZTBNKKNYHII-UHFFFAOYSA-N

$$$$
atoms 23 bonds 26
dotmatics
mol io
 23 26  0  0  0  0  0  0  0  0999 V2000
    2.7418   -0.5538    0.0000 O   0  0  0  0  0  0  0  0  0  0  0  0
    2.7410    0.2732    0.0000 C   0  0  0  0  0  0  0  0  0  0  0  0
    2.0245    0.6861    0.0000 C   0  0  0  0  0  0  0  0  0  0  0  0
    1.3086    0.2719    0.0000 C   0  0  0  0  0  0  0  0  0  0  0  0
    1.2229   -0.5506    0.0000 C   0  0  0  0  0  0  0  0  0  0  0  0
    0.4141   -0.7232    0.0000 C   0  0  0  0  0  0  0  0  0  0  0  0
    0.0000   -0.0074    0.0000 O   0  0  0  0  0  0  0  0  0  0  0  0
    0.5528    0.6077    0.0000 C   0  0  0  0  0  0  0  0  0  0  0  0
    3.4569    0.6873    0.0000 N   0  0  0  0  0  0  0  0  0  0  0  0
    3.4569    1.5156    0.0000 C   0  0  0  0  0  0  0  0  0  0  0  0
    4.1727    1.9297    0.0000 C   0  0  0  0  0  0  0  0  0  0  0  0
    4.8886    1.5156    0.0000 C   0  0  0  0  0  0  0  0  0  0  0  0
    5.6754    1.7700    0.0000 N   0  0  0  0  0  0  0  0  0  0  0  0
    6.1664    1.1014    0.0000 N   0  0  0  0  0  0  0  0  0  0  0  0
    5.6754    0.4329    0.0000 C   0  0  0  0  0  0  0  0  0  0  0  0
    5.9278   -0.3546    0.0000 C   0  0  0  0  0  0  0  0  0  0  0  0
    6.7360   -0.5298    0.0000 C   0  0  0  0  0  0  0  0  0  0  0  0
    6.9885   -1.3173    0.0000 C   0  0  0  0  0  0  0  0  0  0  0  0
    6.4326   -1.9297    0.0000 C   0  0  0  0  0  0  0  0  0  0  0  0
    5.6244   -1.7545    0.0000 C   0  0  0  0  0  0  0  0  0  0  0  0
    5.3720   -0.9670    0.0000 N   0  0  0  0  0  0  0  0  0  0  0  0
    4.8886    0.6873    0.0000 C   0  0  0  0  0  0  0  0  0  0  0  0
    4.1727    0.2732    0.0000 C   0  0  0  0  0  0  0  0  0  0  0  0
  1  2  2  0  0  0
  2  3  1  0  0  0
  3  4  1  0  0  0
  4  8  2  0  0  0
  4  5  1  0  0  0
  5  6  2  0  0  0
  6  7  1  0  0  0
  7  8  1  0  0  0
  2  9  1  0  0  0
  9 23  1  0  0  0
  9 10  1  0  0  0
 10 11  1  0  0  0
 11 12  1  0  0  0
 12 22  2  0  0  0
 12 13  1  0  0  0
 13 14  1  0  0  0
 14 15  2  0  0  0
 15 16  1  0  0  0
 16 21  1  0  0  0
 16 17  2  0  0  0
 17 18  1  0  0  0
 18 19  2  0  0  0
 19 20  1  0  0  0
 20 21  2  0  0  0
 15 22  1  0  0  0
 22 23  1  0  0  0
M  END
>  <Entry>
123

>  <title>
12-5951

>  <rigid docking scores>
-16.1757

>  <InChIKey>
SNRURZWPTOEKSJ-UHFFFAOYSA-N

$$$$
atoms 21 bonds 23
dotmatics
mol io
 21 23  0  0  0  0  0  0  0  0999 V2000
   -4.0882    1.3853    0.0000 C   0  0  0  0  0  0  0  0  0  0  0  0
   -3.6747    0.6691    0.0000 C   0  0  0  0  0  0  0  0  0  0  0  0
   -2.8477    0.6691    0.0000 C   0  0  0  0  0  0  0  0  0  0  0  0
   -2.3616    1.3381    0.0000 N   0  0  0  0  0  0  0  0  0  0  0  0
   -1.5750    1.0826    0.0000 C   0  0  0  0  0  0  0  0  0  0  0  0
   -0.9060    1.5687    0.0000 C   0  0  0  0  0  0  0  0  0  0  0  0
   -0.9060    2.3957    0.0000 N   0  0  0  0  0  0  0  0  0  0  0  0
   -0.1194    2.6512    0.0000 O   0  0  0  0  0  0  0  0  0  0  0  0
    0.3667    1.9822    0.0000 C   0  0  0  0  0  0  0  0  0  0  0  0
    1.1937    1.9822    0.0000 C   0  0  0  0  0  0  0  0  0  0  0  0
    1.6072    2.6984    0.0000 C   0  0  0  0  0  0  0  0  0  0  0  0
    2.4342    2.6984    0.0000 C   0  0  0  0  0  0  0  0  0  0  0  0
    2.8477    1.9822    0.0000 N   0  0  0  0  0  0  0  0  0  0  0  0
    3.6747    1.9822    0.0000 C   0  0  0  0  0  0  0  0  0  0  0  0
    4.0882    1.2660    0.0000 C   0  0  0  0  0  0  0  0  0  0  0  0
    4.0882    2.6984    0.0000 O   0  0  0  0  0  0  0  0  0  0  0  0
    2.4342    1.2660    0.0000 C   0  0  0  0  0  0  0  0  0  0  0  0
    1.6072    1.2660    0.0000 C   0  0  0  0  0  0  0  0  0  0  0  0
   -0.1194    1.3131    0.0000 N   0  0  0  0  0  0  0  0  0  0  0  0
   -1.5750    0.2556    0.0000 C   0  0  0  0  0  0  0  0  0  0  0  0
   -2.3616    0.0000    0.0000 S   0  0  0  0  0  0  0  0  0  0  0  0
  1  2  1  0  0  0
  2  3  1  0  0  0
  3 21  1  0  0  0
  3  4  2  0  0  0
  4  5  1  0  0  0
  5  6  1  0  0  0
  6 19  1  0  0  0
  6  7  2  0  0  0
  7  8  1  0  0  0
  8  9  1  0  0  0
  9 10  1  0  0  0
 10 18  1  0  0  0
 10 11  1  0  0  0
 11 12  1  0  0  0
 12 13  1  0  0  0
 13 14  1  0  0  0
 14 15  1  0  0  0
 14 16  2  0  0  0
 13 17  1  0  0  0
 17 18  1  0  0  0
  9 19  2  0  0  0
  5 20  2  0  0  0
 20 21  1  0  0  0
M  END
>  <Entry>
124

>  <title>
12-6229

>  <rigid docking scores>
-15.7305

>  <InChIKey>
RRWVWFSXKYTJBD-UHFFFAOYSA-N

$$$$
atoms 21 bonds 23
dotmatics
mol io
 21 23  0  0  0  0  0  0  0  0999 V2000
   -2.5647    4.8726    0.0000 C   0  0  0  0  0  0  0  0  0  0  0  0
   -2.1512    4.1564    0.0000 C   0  0  0  0  0  0  0  0  0  0  0  0
   -2.5647    3.4402    0.0000 O   0  0  0  0  0  0  0  0  0  0  0  0
   -1.3242    4.1564    0.0000 N   0  0  0  0  0  0  0  0  0  0  0  0
   -0.9107    4.8726    0.0000 C   0  0  0  0  0  0  0  0  0  0  0  0
   -0.0837    4.8726    0.0000 C   0  0  0  0  0  0  0  0  0  0  0  0
    0.3298    4.1564    0.0000 N   0  0  0  0  0  0  0  0  0  0  0  0
    1.1568    4.1564    0.0000 C   0  0  0  0  0  0  0  0  0  0  0  0
    1.5703    4.8726    0.0000 O   0  0  0  0  0  0  0  0  0  0  0  0
    1.5703    3.4402    0.0000 C   0  0  0  0  0  0  0  0  0  0  0  0
    2.3928    3.3538    0.0000 C   0  0  0  0  0  0  0  0  0  0  0  0
    2.5647    2.5448    0.0000 O   0  0  0  0  0  0  0  0  0  0  0  0
    1.8485    2.1313    0.0000 C   0  0  0  0  0  0  0  0  0  0  0  0
    1.7621    1.3089    0.0000 C   0  0  0  0  0  0  0  0  0  0  0  0
    2.3766    0.7555    0.0000 C   0  0  0  0  0  0  0  0  0  0  0  0
    2.0403   -0.0000    0.0000 C   0  0  0  0  0  0  0  0  0  0  0  0
    1.2178    0.0864    0.0000 C   0  0  0  0  0  0  0  0  0  0  0  0
    1.0459    0.8954    0.0000 S   0  0  0  0  0  0  0  0  0  0  0  0
    1.2339    2.6847    0.0000 N   0  0  0  0  0  0  0  0  0  0  0  0
   -0.0837    3.4402    0.0000 C   0  0  0  0  0  0  0  0  0  0  0  0
   -0.9107    3.4402    0.0000 C   0  0  0  0  0  0  0  0  0  0  0  0
  1  2  1  0  0  0
  2  3  2  0  0  0
  2  4  1  0  0  0
  4 21  1  0  0  0
  4  5  1  0  0  0
  5  6  1  0  0  0
  6  7  1  0  0  0
  7  8  1  0  0  0
  8  9  2  0  0  0
  8 10  1  0  0  0
 10 19  1  0  0  0
 10 11  2  0  0  0
 11 12  1  0  0  0
 12 13  1  0  0  0
 13 14  1  0  0  0
 14 18  1  0  0  0
 14 15  2  0  0  0
 15 16  1  0  0  0
 16 17  2  0  0  0
 17 18  1  0  0  0
 13 19  2  0  0  0
  7 20  1  0  0  0
 20 21  1  0  0  0
M  END
>  <Entry>
125

>  <title>
12-6327

>  <rigid docking scores>
-17.1705

>  <InChIKey>
VLGNFNYTWAUFRP-UHFFFAOYSA-N

$$$$
atoms 19 bonds 21
dotmatics
mol io
 19 21  0  0  0  0  0  0  0  0999 V2000
   -0.8401    2.1015    0.0000 O   0  0  0  0  0  0  0  0  0  0  0  0
   -1.2536    1.3853    0.0000 C   0  0  0  0  0  0  0  0  0  0  0  0
   -0.8401    0.6691    0.0000 N   0  0  0  0  0  0  0  0  0  0  0  0
   -0.0131    0.6691    0.0000 C   0  0  0  0  0  0  0  0  0  0  0  0
    0.4730    1.3381    0.0000 N   0  0  0  0  0  0  0  0  0  0  0  0
    1.2596    1.0826    0.0000 C   0  0  0  0  0  0  0  0  0  0  0  0
    1.9286    1.5687    0.0000 C   0  0  0  0  0  0  0  0  0  0  0  0
    1.8422    2.3911    0.0000 C   0  0  0  0  0  0  0  0  0  0  0  0
    2.5112    2.8772    0.0000 C   0  0  0  0  0  0  0  0  0  0  0  0
    3.2667    2.5409    0.0000 N   0  0  0  0  0  0  0  0  0  0  0  0
    3.3532    1.7184    0.0000 C   0  0  0  0  0  0  0  0  0  0  0  0
    2.6841    1.2323    0.0000 C   0  0  0  0  0  0  0  0  0  0  0  0
    1.2596    0.2556    0.0000 C   0  0  0  0  0  0  0  0  0  0  0  0
    0.4730   -0.0000    0.0000 S   0  0  0  0  0  0  0  0  0  0  0  0
   -2.0806    1.3853    0.0000 C   0  0  0  0  0  0  0  0  0  0  0  0
   -2.5667    0.7162    0.0000 C   0  0  0  0  0  0  0  0  0  0  0  0
   -3.3532    0.9718    0.0000 C   0  0  0  0  0  0  0  0  0  0  0  0
   -3.3532    1.7988    0.0000 C   0  0  0  0  0  0  0  0  0  0  0  0
   -2.5667    2.0543    0.0000 C   0  0  0  0  0  0  0  0  0  0  0  0
  1  2  2  0  0  0
  2  3  1  0  0  0
  3  4  1  0  0  0
  4 14  1  0  0  0
  4  5  2  0  0  0
  5  6  1  0  0  0
  6  7  1  0  0  0
  7 12  1  0  0  0
  7  8  2  0  0  0
  8  9  1  0  0  0
  9 10  2  0  0  0
 10 11  1  0  0  0
 11 12  2  0  0  0
  6 13  2  0  0  0
 13 14  1  0  0  0
  2 15  1  0  0  0
 15 19  1  0  0  0
 15 16  1  0  0  0
 16 17  1  0  0  0
 17 18  1  0  0  0
 18 19  1  0  0  0
M  END
>  <Entry>
126

>  <title>
12-6410

>  <rigid docking scores>
-17.7853

>  <InChIKey>
JBNQIIJSEVMYOO-UHFFFAOYSA-N

>  <Pubchem>
8851766

$$$$
atoms 23 bonds 25
dotmatics
mol io
 23 25  0  0  0  0  0  0  0  0999 V2000
    6.2094   -0.3583    0.0000 C   0  0  0  0  0  0  0  0  0  0  0  0
    5.3824   -0.3583    0.0000 N   0  0  0  0  0  0  0  0  0  0  0  0
    4.9682   -1.0741    0.0000 C   0  0  0  0  0  0  0  0  0  0  0  0
    4.1400   -1.0741    0.0000 C   0  0  0  0  0  0  0  0  0  0  0  0
    3.7259   -0.3583    0.0000 N   0  0  0  0  0  0  0  0  0  0  0  0
    2.8976   -0.3583    0.0000 C   0  0  0  0  0  0  0  0  0  0  0  0
    2.4835   -1.0741    0.0000 C   0  0  0  0  0  0  0  0  0  0  0  0
    1.6552   -1.0741    0.0000 C   0  0  0  0  0  0  0  0  0  0  0  0
    1.2411   -1.7900    0.0000 C   0  0  0  0  0  0  0  0  0  0  0  0
    0.5253   -1.3758    0.0000 F   0  0  0  0  0  0  0  0  0  0  0  0
    0.8270   -2.5058    0.0000 F   0  0  0  0  0  0  0  0  0  0  0  0
    1.9570   -2.2041    0.0000 F   0  0  0  0  0  0  0  0  0  0  0  0
    1.2411   -0.3583    0.0000 N   0  0  0  0  0  0  0  0  0  0  0  0
    1.6552    0.3576    0.0000 C   0  0  0  0  0  0  0  0  0  0  0  0
    1.2411    1.0734    0.0000 C   0  0  0  0  0  0  0  0  0  0  0  0
    0.4141    1.0727    0.0000 C   0  0  0  0  0  0  0  0  0  0  0  0
    0.0000    1.7885    0.0000 C   0  0  0  0  0  0  0  0  0  0  0  0
    0.4129    2.5051    0.0000 C   0  0  0  0  0  0  0  0  0  0  0  0
    1.2399    2.5058    0.0000 N   0  0  0  0  0  0  0  0  0  0  0  0
    1.6540    1.7900    0.0000 C   0  0  0  0  0  0  0  0  0  0  0  0
    2.4835    0.3576    0.0000 N   0  0  0  0  0  0  0  0  0  0  0  0
    4.1400    0.3576    0.0000 C   0  0  0  0  0  0  0  0  0  0  0  0
    4.9682    0.3576    0.0000 C   0  0  0  0  0  0  0  0  0  0  0  0
  1  2  1  0  0  0
  2 23  1  0  0  0
  2  3  1  0  0  0
  3  4  1  0  0  0
  4  5  1  0  0  0
  5  6  1  0  0  0
  6 21  1  0  0  0
  6  7  2  0  0  0
  7  8  1  0  0  0
  8  9  1  0  0  0
  9 10  1  0  0  0
  9 11  1  0  0  0
  9 12  1  0  0  0
  8 13  2  0  0  0
 13 14  1  0  0  0
 14 15  1  0  0  0
 15 20  1  0  0  0
 15 16  2  0  0  0
 16 17  1  0  0  0
 17 18  2  0  0  0
 18 19  1  0  0  0
 19 20  2  0  0  0
 14 21  2  0  0  0
  5 22  1  0  0  0
 22 23  1  0  0  0
M  END
>  <Entry>
127

>  <title>
12-6599

>  <rigid docking scores>
-16.9793

>  <InChIKey>
QZEDXGGXJZFSSS-UHFFFAOYSA-N

$$$$
atoms 24 bonds 26
dotmatics
mol io
 24 26  0  0  0  0  0  0  0  0999 V2000
    5.0359   -1.4306    0.0000 C   0  0  0  0  0  0  0  0  0  0  0  0
    4.3168   -1.0222    0.0000 O   0  0  0  0  0  0  0  0  0  0  0  0
    3.6035   -1.4408    0.0000 C   0  0  0  0  0  0  0  0  0  0  0  0
    3.6094   -2.2678    0.0000 C   0  0  0  0  0  0  0  0  0  0  0  0
    2.8962   -2.6864    0.0000 C   0  0  0  0  0  0  0  0  0  0  0  0
    2.9021   -3.5134    0.0000 F   0  0  0  0  0  0  0  0  0  0  0  0
    2.1771   -2.2780    0.0000 C   0  0  0  0  0  0  0  0  0  0  0  0
    2.1712   -1.4510    0.0000 C   0  0  0  0  0  0  0  0  0  0  0  0
    2.8844   -1.0324    0.0000 C   0  0  0  0  0  0  0  0  0  0  0  0
    2.8785   -0.2055    0.0000 N   0  0  0  0  0  0  0  0  0  0  0  0
    2.1594    0.2029    0.0000 C   0  0  0  0  0  0  0  0  0  0  0  0
    1.4461   -0.2157    0.0000 O   0  0  0  0  0  0  0  0  0  0  0  0
    2.1534    1.0299    0.0000 C   0  0  0  0  0  0  0  0  0  0  0  0
    2.8693    1.4440    0.0000 C   0  0  0  0  0  0  0  0  0  0  0  0
    2.8693    2.2723    0.0000 N   0  0  0  0  0  0  0  0  0  0  0  0
    3.5851    2.6864    0.0000 C   0  0  0  0  0  0  0  0  0  0  0  0
    2.1534    2.6864    0.0000 C   0  0  0  0  0  0  0  0  0  0  0  0
    2.1594    3.5134    0.0000 O   0  0  0  0  0  0  0  0  0  0  0  0
    1.4317    2.2723    0.0000 C   0  0  0  0  0  0  0  0  0  0  0  0
    0.7158    2.6864    0.0000 C   0  0  0  0  0  0  0  0  0  0  0  0
    0.0000    2.2723    0.0000 C   0  0  0  0  0  0  0  0  0  0  0  0
    0.0000    1.4440    0.0000 C   0  0  0  0  0  0  0  0  0  0  0  0
    0.7158    1.0299    0.0000 C   0  0  0  0  0  0  0  0  0  0  0  0
    1.4317    1.4440    0.0000 C   0  0  0  0  0  0  0  0  0  0  0  0
  1  2  1  0  0  0
  2  3  1  0  0  0
  3  9  1  0  0  0
  3  4  2  0  0  0
  4  5  1  0  0  0
  5  6  1  0  0  0
  5  7  2  0  0  0
  7  8  1  0  0  0
  8  9  2  0  0  0
  9 10  1  0  0  0
 10 11  1  0  0  0
 11 12  2  0  0  0
 11 13  1  0  0  0
 13 24  1  0  0  0
 13 14  2  0  0  0
 14 15  1  0  0  0
 15 16  1  0  0  0
 15 17  1  0  0  0
 17 18  2  0  0  0
 17 19  1  0  0  0
 19 24  1  0  0  0
 19 20  2  0  0  0
 20 21  1  0  0  0
 21 22  2  0  0  0
 22 23  1  0  0  0
 23 24  2  0  0  0
M  END
>  <Entry>
128

>  <title>
12-6911

>  <rigid docking scores>
-15.4327

>  <InChIKey>
OKDARHZHTONAJZ-UHFFFAOYSA-N

$$$$
atoms 23 bonds 26
dotmatics
mol io
 23 26  0  0  0  0  0  0  0  0999 V2000
    0.0000   -0.2083    0.0000 C   0  0  0  0  0  0  0  0  0  0  0  0
    0.7158    0.2058    0.0000 N   0  0  0  0  0  0  0  0  0  0  0  0
    0.7158    1.0340    0.0000 C   0  0  0  0  0  0  0  0  0  0  0  0
    1.4317    1.4482    0.0000 C   0  0  0  0  0  0  0  0  0  0  0  0
    2.1475    1.0340    0.0000 C   0  0  0  0  0  0  0  0  0  0  0  0
    2.8693    1.4482    0.0000 N   0  0  0  0  0  0  0  0  0  0  0  0
    3.5851    1.0340    0.0000 C   0  0  0  0  0  0  0  0  0  0  0  0
    4.3010    1.4482    0.0000 C   0  0  0  0  0  0  0  0  0  0  0  0
    4.3003    2.2752    0.0000 C   0  0  0  0  0  0  0  0  0  0  0  0
    5.0161    2.6893    0.0000 C   0  0  0  0  0  0  0  0  0  0  0  0
    5.7327    2.2764    0.0000 C   0  0  0  0  0  0  0  0  0  0  0  0
    5.7334    1.4494    0.0000 N   0  0  0  0  0  0  0  0  0  0  0  0
    5.0175    1.0353    0.0000 C   0  0  0  0  0  0  0  0  0  0  0  0
    3.5851    0.2058    0.0000 N   0  0  0  0  0  0  0  0  0  0  0  0
    2.8693   -0.2083    0.0000 C   0  0  0  0  0  0  0  0  0  0  0  0
    2.8752   -1.0353    0.0000 N   0  0  0  0  0  0  0  0  0  0  0  0
    3.5943   -1.4437    0.0000 C   0  0  0  0  0  0  0  0  0  0  0  0
    3.6002   -2.2707    0.0000 C   0  0  0  0  0  0  0  0  0  0  0  0
    2.8870   -2.6893    0.0000 S   0  0  0  0  0  0  0  0  0  0  0  0
    2.1679   -2.2809    0.0000 C   0  0  0  0  0  0  0  0  0  0  0  0
    2.1620   -1.4539    0.0000 C   0  0  0  0  0  0  0  0  0  0  0  0
    2.1475    0.2058    0.0000 C   0  0  0  0  0  0  0  0  0  0  0  0
    1.4317   -0.2083    0.0000 C   0  0  0  0  0  0  0  0  0  0  0  0
  1  2  1  0  0  0
  2 23  1  0  0  0
  2  3  1  0  0  0
  3  4  1  0  0  0
  4  5  1  0  0  0
  5 22  1  0  0  0
  5  6  2  0  0  0
  6  7  1  0  0  0
  7  8  1  0  0  0
  8 13  1  0  0  0
  8  9  2  0  0  0
  9 10  1  0  0  0
 10 11  2  0  0  0
 11 12  1  0  0  0
 12 13  2  0  0  0
  7 14  2  0  0  0
 14 15  1  0  0  0
 15 16  1  0  0  0
 16 21  1  0  0  0
 16 17  1  0  0  0
 17 18  1  0  0  0
 18 19  1  0  0  0
 19 20  1  0  0  0
 20 21  1  0  0  0
 15 22  2  0  0  0
 22 23  1  0  0  0
M  END
>  <Entry>
129

>  <title>
12-6952

>  <rigid docking scores>
-18.7304

>  <InChIKey>
KGUKZRACXADESU-UHFFFAOYSA-N

$$$$
atoms 22 bonds 24
dotmatics
mol io
 22 24  0  0  0  0  0  0  0  0999 V2000
    3.7448    2.5947    0.0000 N   0  0  0  0  0  0  0  0  0  0  0  0
    3.0286    2.1812    0.0000 C   0  0  0  0  0  0  0  0  0  0  0  0
    2.3124    2.5947    0.0000 O   0  0  0  0  0  0  0  0  0  0  0  0
    3.0286    1.3542    0.0000 C   0  0  0  0  0  0  0  0  0  0  0  0
    3.6977    0.8681    0.0000 C   0  0  0  0  0  0  0  0  0  0  0  0
    3.4421    0.0816    0.0000 N   0  0  0  0  0  0  0  0  0  0  0  0
    3.9282   -0.5875    0.0000 C   0  0  0  0  0  0  0  0  0  0  0  0
    4.7507   -0.5011    0.0000 C   0  0  0  0  0  0  0  0  0  0  0  0
    5.2368   -1.1701    0.0000 C   0  0  0  0  0  0  0  0  0  0  0  0
    4.9004   -1.9256    0.0000 C   0  0  0  0  0  0  0  0  0  0  0  0
    5.3865   -2.5947    0.0000 F   0  0  0  0  0  0  0  0  0  0  0  0
    4.0780   -2.0121    0.0000 C   0  0  0  0  0  0  0  0  0  0  0  0
    3.5919   -1.3430    0.0000 C   0  0  0  0  0  0  0  0  0  0  0  0
    2.7694   -1.4295    0.0000 F   0  0  0  0  0  0  0  0  0  0  0  0
    2.6151    0.0816    0.0000 N   0  0  0  0  0  0  0  0  0  0  0  0
    2.3596    0.8681    0.0000 C   0  0  0  0  0  0  0  0  0  0  0  0
    1.5730    1.1236    0.0000 C   0  0  0  0  0  0  0  0  0  0  0  0
    0.9585    0.5703    0.0000 C   0  0  0  0  0  0  0  0  0  0  0  0
    0.1719    0.8258    0.0000 C   0  0  0  0  0  0  0  0  0  0  0  0
    0.0000    1.6347    0.0000 C   0  0  0  0  0  0  0  0  0  0  0  0
    0.6146    2.1881    0.0000 N   0  0  0  0  0  0  0  0  0  0  0  0
    1.4011    1.9326    0.0000 C   0  0  0  0  0  0  0  0  0  0  0  0
  1  2  1  0  0  0
  2  3  2  0  0  0
  2  4  1  0  0  0
  4 16  1  0  0  0
  4  5  2  0  0  0
  5  6  1  0  0  0
  6  7  1  0  0  0
  7 13  1  0  0  0
  7  8  2  0  0  0
  8  9  1  0  0  0
  9 10  2  0  0  0
 10 11  1  0  0  0
 10 12  1  0  0  0
 12 13  2  0  0  0
 13 14  1  0  0  0
  6 15  1  0  0  0
 15 16  2  0  0  0
 16 17  1  0  0  0
 17 22  1  0  0  0
 17 18  2  0  0  0
 18 19  1  0  0  0
 19 20  2  0  0  0
 20 21  1  0  0  0
 21 22  2  0  0  0
M  END
>  <Entry>
130

>  <title>
12-7674

>  <rigid docking scores>
-16.4874

>  <InChIKey>
IYUVSMHWASAPLW-UHFFFAOYSA-N

$$$$
atoms 21 bonds 23
dotmatics
mol io
 21 23  0  0  0  0  0  0  0  0999 V2000
   -3.8352    1.4324    0.0000 C   0  0  0  0  0  0  0  0  0  0  0  0
   -3.4217    0.7162    0.0000 C   0  0  0  0  0  0  0  0  0  0  0  0
   -3.8352    0.0000    0.0000 O   0  0  0  0  0  0  0  0  0  0  0  0
   -2.5947    0.7162    0.0000 N   0  0  0  0  0  0  0  0  0  0  0  0
   -2.1812    1.4324    0.0000 C   0  0  0  0  0  0  0  0  0  0  0  0
   -1.3542    1.4324    0.0000 C   0  0  0  0  0  0  0  0  0  0  0  0
   -0.9407    0.7162    0.0000 C   0  0  0  0  0  0  0  0  0  0  0  0
   -0.1137    0.7162    0.0000 C   0  0  0  0  0  0  0  0  0  0  0  0
    0.3724    1.3853    0.0000 N   0  0  0  0  0  0  0  0  0  0  0  0
    1.1589    1.1297    0.0000 C   0  0  0  0  0  0  0  0  0  0  0  0
    1.8280    1.6158    0.0000 C   0  0  0  0  0  0  0  0  0  0  0  0
    1.7416    2.4383    0.0000 C   0  0  0  0  0  0  0  0  0  0  0  0
    2.4106    2.9244    0.0000 C   0  0  0  0  0  0  0  0  0  0  0  0
    3.1661    2.5880    0.0000 C   0  0  0  0  0  0  0  0  0  0  0  0
    3.8352    3.0741    0.0000 F   0  0  0  0  0  0  0  0  0  0  0  0
    3.2526    1.7655    0.0000 C   0  0  0  0  0  0  0  0  0  0  0  0
    2.5835    1.2794    0.0000 C   0  0  0  0  0  0  0  0  0  0  0  0
    1.1589    0.3027    0.0000 N   0  0  0  0  0  0  0  0  0  0  0  0
    0.3724    0.0471    0.0000 O   0  0  0  0  0  0  0  0  0  0  0  0
   -1.3542    0.0000    0.0000 C   0  0  0  0  0  0  0  0  0  0  0  0
   -2.1812    0.0000    0.0000 C   0  0  0  0  0  0  0  0  0  0  0  0
  1  2  1  0  0  0
  2  3  2  0  0  0
  2  4  1  0  0  0
  4 21  1  0  0  0
  4  5  1  0  0  0
  5  6  1  0  0  0
  6  7  1  0  0  0
  7  8  1  0  0  0
  8 19  1  0  0  0
  8  9  2  0  0  0
  9 10  1  0  0  0
 10 11  1  0  0  0
 11 17  1  0  0  0
 11 12  2  0  0  0
 12 13  1  0  0  0
 13 14  2  0  0  0
 14 15  1  0  0  0
 14 16  1  0  0  0
 16 17  2  0  0  0
 10 18  2  0  0  0
 18 19  1  0  0  0
  7 20  1  0  0  0
 20 21  1  0  0  0
M  END
>  <Entry>
131

>  <title>
12-7686

>  <rigid docking scores>
-15.8105

>  <InChIKey>
LXYCKWMSRBAYOP-UHFFFAOYSA-N

>  <Pubchem>
42760674

$$$$
atoms 20 bonds 21
dotmatics
mol io
 20 21  0  0  0  0  0  0  0  0999 V2000
   -3.3080    4.2972    0.0000 C   0  0  0  0  0  0  0  0  0  0  0  0
   -2.8945    3.5810    0.0000 C   0  0  0  0  0  0  0  0  0  0  0  0
   -2.0675    3.5810    0.0000 N   0  0  0  0  0  0  0  0  0  0  0  0
   -1.6540    4.2972    0.0000 C   0  0  0  0  0  0  0  0  0  0  0  0
   -0.8270    4.2972    0.0000 C   0  0  0  0  0  0  0  0  0  0  0  0
   -0.4135    3.5810    0.0000 N   0  0  0  0  0  0  0  0  0  0  0  0
    0.4135    3.5810    0.0000 C   0  0  0  0  0  0  0  0  0  0  0  0
    0.8270    2.8648    0.0000 C   0  0  0  0  0  0  0  0  0  0  0  0
    0.4135    2.1486    0.0000 O   0  0  0  0  0  0  0  0  0  0  0  0
    1.6540    2.8648    0.0000 N   0  0  0  0  0  0  0  0  0  0  0  0
    2.0675    2.1486    0.0000 C   0  0  0  0  0  0  0  0  0  0  0  0
    1.6540    1.4324    0.0000 C   0  0  0  0  0  0  0  0  0  0  0  0
    2.0675    0.7162    0.0000 C   0  0  0  0  0  0  0  0  0  0  0  0
    1.6540   -0.0000    0.0000 C   0  0  0  0  0  0  0  0  0  0  0  0
    2.8945    0.7162    0.0000 C   0  0  0  0  0  0  0  0  0  0  0  0
    3.3080    1.4324    0.0000 C   0  0  0  0  0  0  0  0  0  0  0  0
    2.8945    2.1486    0.0000 C   0  0  0  0  0  0  0  0  0  0  0  0
    3.3080    2.8648    0.0000 C   0  0  0  0  0  0  0  0  0  0  0  0
   -0.8270    2.8648    0.0000 C   0  0  0  0  0  0  0  0  0  0  0  0
   -1.6540    2.8648    0.0000 C   0  0  0  0  0  0  0  0  0  0  0  0
  1  2  1  0  0  0
  2  3  1  0  0  0
  3 20  1  0  0  0
  3  4  1  0  0  0
  4  5  1  0  0  0
  5  6  1  0  0  0
  6  7  1  0  0  0
  7  8  1  0  0  0
  8  9  2  0  0  0
  8 10  1  0  0  0
 10 11  1  0  0  0
 11 17  1  0  0  0
 11 12  2  0  0  0
 12 13  1  0  0  0
 13 14  1  0  0  0
 13 15  2  0  0  0
 15 16  1  0  0  0
 16 17  2  0  0  0
 17 18  1  0  0  0
  6 19  1  0  0  0
 19 20  1  0  0  0
M  END
>  <Entry>
132

>  <title>
12-7729

>  <rigid docking scores>
-15.5012

>  <InChIKey>
FCXNUDVJQUXSTK-UHFFFAOYSA-N

>  <ChEMBL>
CHEMBL4540741

>  <ZINC>
ZINC000020608820

>  <eMolecules>
2292273

>  <Pubchem>
6468127

>  <Mcule>
MCULE-2107938039

>  <MolPort>
MolPort-002-108-116

$$$$
atoms 19 bonds 22
dotmatics
mol io
 19 22  0  0  0  0  0  0  0  0999 V2000
    1.5443   -0.6723    0.0000 O   0  0  0  0  0  0  0  0  0  0  0  0
    1.5436    0.1547    0.0000 C   0  0  0  0  0  0  0  0  0  0  0  0
    0.8270    0.5676    0.0000 C   0  0  0  0  0  0  0  0  0  0  0  0
    0.0000    0.5669    0.0000 C   0  0  0  0  0  0  0  0  0  0  0  0
    0.4129    1.2834    0.0000 C   0  0  0  0  0  0  0  0  0  0  0  0
    2.2594    0.5688    0.0000 N   0  0  0  0  0  0  0  0  0  0  0  0
    2.2594    1.3971    0.0000 C   0  0  0  0  0  0  0  0  0  0  0  0
    2.9752    1.8112    0.0000 C   0  0  0  0  0  0  0  0  0  0  0  0
    3.6911    1.3971    0.0000 C   0  0  0  0  0  0  0  0  0  0  0  0
    4.4779    1.6515    0.0000 N   0  0  0  0  0  0  0  0  0  0  0  0
    4.9690    0.9830    0.0000 N   0  0  0  0  0  0  0  0  0  0  0  0
    4.4779    0.3144    0.0000 C   0  0  0  0  0  0  0  0  0  0  0  0
    4.7303   -0.4731    0.0000 C   0  0  0  0  0  0  0  0  0  0  0  0
    5.5158   -0.7318    0.0000 C   0  0  0  0  0  0  0  0  0  0  0  0
    5.5125   -1.5588    0.0000 C   0  0  0  0  0  0  0  0  0  0  0  0
    4.7250   -1.8112    0.0000 C   0  0  0  0  0  0  0  0  0  0  0  0
    4.2416   -1.1402    0.0000 S   0  0  0  0  0  0  0  0  0  0  0  0
    3.6911    0.5688    0.0000 C   0  0  0  0  0  0  0  0  0  0  0  0
    2.9752    0.1547    0.0000 C   0  0  0  0  0  0  0  0  0  0  0  0
  1  2  2  0  0  0
  2  3  1  0  0  0
  3  5  1  0  0  0
  3  4  1  0  0  0
  4  5  1  0  0  0
  2  6  1  0  0  0
  6 19  1  0  0  0
  6  7  1  0  0  0
  7  8  1  0  0  0
  8  9  1  0  0  0
  9 18  2  0  0  0
  9 10  1  0  0  0
 10 11  1  0  0  0
 11 12  2  0  0  0
 12 13  1  0  0  0
 13 17  1  0  0  0
 13 14  2  0  0  0
 14 15  1  0  0  0
 15 16  2  0  0  0
 16 17  1  0  0  0
 12 18  1  0  0  0
 18 19  1  0  0  0
M  END
>  <Entry>
133

>  <title>
12-8531

>  <rigid docking scores>
-16.9905

>  <InChIKey>
UFJZGLRABMSQBF-UHFFFAOYSA-N

$$$$
atoms 21 bonds 23
dotmatics
mol io
 21 23  0  0  0  0  0  0  0  0999 V2000
   -2.3034    0.6691    0.0000 O   0  0  0  0  0  0  0  0  0  0  0  0
   -1.8899    1.3853    0.0000 C   0  0  0  0  0  0  0  0  0  0  0  0
   -1.0629    1.3853    0.0000 N   0  0  0  0  0  0  0  0  0  0  0  0
   -0.6494    0.6691    0.0000 C   0  0  0  0  0  0  0  0  0  0  0  0
    0.1776    0.6691    0.0000 C   0  0  0  0  0  0  0  0  0  0  0  0
    0.6637    1.3381    0.0000 C   0  0  0  0  0  0  0  0  0  0  0  0
    1.4503    1.0826    0.0000 C   0  0  0  0  0  0  0  0  0  0  0  0
    2.1193    1.5687    0.0000 C   0  0  0  0  0  0  0  0  0  0  0  0
    2.0329    2.3911    0.0000 C   0  0  0  0  0  0  0  0  0  0  0  0
    2.7019    2.8772    0.0000 C   0  0  0  0  0  0  0  0  0  0  0  0
    3.4574    2.5409    0.0000 C   0  0  0  0  0  0  0  0  0  0  0  0
    3.5439    1.7184    0.0000 N   0  0  0  0  0  0  0  0  0  0  0  0
    2.8748    1.2323    0.0000 C   0  0  0  0  0  0  0  0  0  0  0  0
    1.4503    0.2556    0.0000 N   0  0  0  0  0  0  0  0  0  0  0  0
    0.6637   -0.0000    0.0000 O   0  0  0  0  0  0  0  0  0  0  0  0
   -2.3034    2.1015    0.0000 N   0  0  0  0  0  0  0  0  0  0  0  0
   -3.1304    2.1015    0.0000 C   0  0  0  0  0  0  0  0  0  0  0  0
   -3.5439    2.8177    0.0000 C   0  0  0  0  0  0  0  0  0  0  0  0
   -3.1304    3.5339    0.0000 C   0  0  0  0  0  0  0  0  0  0  0  0
   -2.3034    3.5339    0.0000 C   0  0  0  0  0  0  0  0  0  0  0  0
   -1.8899    2.8177    0.0000 C   0  0  0  0  0  0  0  0  0  0  0  0
  1  2  2  0  0  0
  2  3  1  0  0  0
  3  4  1  0  0  0
  4  5  1  0  0  0
  5 15  1  0  0  0
  5  6  2  0  0  0
  6  7  1  0  0  0
  7  8  1  0  0  0
  8 13  1  0  0  0
  8  9  2  0  0  0
  9 10  1  0  0  0
 10 11  2  0  0  0
 11 12  1  0  0  0
 12 13  2  0  0  0
  7 14  2  0  0  0
 14 15  1  0  0  0
  2 16  1  0  0  0
 16 21  1  0  0  0
 16 17  1  0  0  0
 17 18  1  0  0  0
 18 19  1  0  0  0
 19 20  1  0  0  0
 20 21  1  0  0  0
M  END
>  <Entry>
134

>  <title>
12-8562

>  <rigid docking scores>
-16.4991

>  <InChIKey>
OUUCPLMJUNERHL-UHFFFAOYSA-N

$$$$
atoms 21 bonds 22
dotmatics
mol io
 21 22  0  0  0  0  0  0  0  0999 V2000
    2.8976    3.2224    0.0000 C   0  0  0  0  0  0  0  0  0  0  0  0
    2.4847    2.5058    0.0000 O   0  0  0  0  0  0  0  0  0  0  0  0
    2.8989    1.7900    0.0000 C   0  0  0  0  0  0  0  0  0  0  0  0
    3.7271    1.7900    0.0000 C   0  0  0  0  0  0  0  0  0  0  0  0
    4.1412    1.0741    0.0000 C   0  0  0  0  0  0  0  0  0  0  0  0
    3.7271    0.3583    0.0000 C   0  0  0  0  0  0  0  0  0  0  0  0
    4.1412   -0.3576    0.0000 C   0  0  0  0  0  0  0  0  0  0  0  0
    4.9682   -0.3568    0.0000 O   0  0  0  0  0  0  0  0  0  0  0  0
    3.7284   -1.0741    0.0000 N   0  0  0  0  0  0  0  0  0  0  0  0
    4.1425   -1.7900    0.0000 C   0  0  0  0  0  0  0  0  0  0  0  0
    4.9695   -1.7892    0.0000 C   0  0  0  0  0  0  0  0  0  0  0  0
    3.7296   -2.5065    0.0000 C   0  0  0  0  0  0  0  0  0  0  0  0
    4.1437   -3.2224    0.0000 O   0  0  0  0  0  0  0  0  0  0  0  0
    2.8989    0.3583    0.0000 N   0  0  0  0  0  0  0  0  0  0  0  0
    2.4847    1.0741    0.0000 C   0  0  0  0  0  0  0  0  0  0  0  0
    1.6565    1.0741    0.0000 C   0  0  0  0  0  0  0  0  0  0  0  0
    1.2424    0.3583    0.0000 C   0  0  0  0  0  0  0  0  0  0  0  0
    0.4141    0.3583    0.0000 C   0  0  0  0  0  0  0  0  0  0  0  0
    0.0000    1.0741    0.0000 N   0  0  0  0  0  0  0  0  0  0  0  0
    0.4141    1.7900    0.0000 C   0  0  0  0  0  0  0  0  0  0  0  0
    1.2424    1.7900    0.0000 C   0  0  0  0  0  0  0  0  0  0  0  0
  1  2  1  0  0  0
  2  3  1  0  0  0
  3 15  1  0  0  0
  3  4  2  0  0  0
  4  5  1  0  0  0
  5  6  2  0  0  0
  6  7  1  0  0  0
  7  8  2  0  0  0
  7  9  1  0  0  0
  9 10  1  0  0  0
 10 11  1  0  0  0
 10 12  1  0  0  0
 12 13  1  0  0  0
  6 14  1  0  0  0
 14 15  2  0  0  0
 15 16  1  0  0  0
 16 21  1  0  0  0
 16 17  2  0  0  0
 17 18  1  0  0  0
 18 19  2  0  0  0
 19 20  1  0  0  0
 20 21  2  0  0  0
M  END
>  <Entry>
135

>  <title>
12-9415

>  <rigid docking scores>
-15.4333

>  <InChIKey>
FOVRKFIBHRJKGT-UHFFFAOYSA-N

$$$$
atoms 22 bonds 24
dotmatics
mol io
 22 24  0  0  0  0  0  0  0  0999 V2000
    4.3017    1.9114    0.0000 C   0  0  0  0  0  0  0  0  0  0  0  0
    3.5851    2.3243    0.0000 C   0  0  0  0  0  0  0  0  0  0  0  0
    2.8693    1.9102    0.0000 C   0  0  0  0  0  0  0  0  0  0  0  0
    2.1534    2.3243    0.0000 N   0  0  0  0  0  0  0  0  0  0  0  0
    1.4317    1.9102    0.0000 C   0  0  0  0  0  0  0  0  0  0  0  0
    0.7158    2.3243    0.0000 C   0  0  0  0  0  0  0  0  0  0  0  0
    0.0000    1.9102    0.0000 C   0  0  0  0  0  0  0  0  0  0  0  0
    0.0000    1.0819    0.0000 C   0  0  0  0  0  0  0  0  0  0  0  0
    0.7158    0.6678    0.0000 C   0  0  0  0  0  0  0  0  0  0  0  0
    1.4317    1.0819    0.0000 C   0  0  0  0  0  0  0  0  0  0  0  0
    2.1534    0.6678    0.0000 C   0  0  0  0  0  0  0  0  0  0  0  0
    2.1594   -0.1592    0.0000 O   0  0  0  0  0  0  0  0  0  0  0  0
    2.8693    1.0819    0.0000 N   0  0  0  0  0  0  0  0  0  0  0  0
    3.5851    0.6678    0.0000 N   0  0  0  0  0  0  0  0  0  0  0  0
    3.5844   -0.1592    0.0000 C   0  0  0  0  0  0  0  0  0  0  0  0
    2.8678   -0.5721    0.0000 O   0  0  0  0  0  0  0  0  0  0  0  0
    4.3003   -0.5733    0.0000 C   0  0  0  0  0  0  0  0  0  0  0  0
    5.0560   -0.2376    0.0000 C   0  0  0  0  0  0  0  0  0  0  0  0
    5.6089   -0.8527    0.0000 S   0  0  0  0  0  0  0  0  0  0  0  0
    5.1948   -1.5685    0.0000 C   0  0  0  0  0  0  0  0  0  0  0  0
    5.5305   -2.3243    0.0000 C   0  0  0  0  0  0  0  0  0  0  0  0
    4.3860   -1.3959    0.0000 N   0  0  0  0  0  0  0  0  0  0  0  0
  1  2  1  0  0  0
  2  3  1  0  0  0
  3 13  1  0  0  0
  3  4  2  0  0  0
  4  5  1  0  0  0
  5 10  1  0  0  0
  5  6  2  0  0  0
  6  7  1  0  0  0
  7  8  2  0  0  0
  8  9  1  0  0  0
  9 10  2  0  0  0
 10 11  1  0  0  0
 11 12  2  0  0  0
 11 13  1  0  0  0
 13 14  1  0  0  0
 14 15  1  0  0  0
 15 16  2  0  0  0
 15 17  1  0  0  0
 17 22  1  0  0  0
 17 18  2  0  0  0
 18 19  1  0  0  0
 19 20  1  0  0  0
 20 21  1  0  0  0
 20 22  2  0  0  0
M  END
>  <Entry>
136

>  <title>
12-9464

>  <rigid docking scores>
-17.5486

>  <InChIKey>
AXMIYLYPOIUYMN-UHFFFAOYSA-N

$$$$
atoms 18 bonds 20
dotmatics
mol io
 18 20  0  0  0  0  0  0  0  0999 V2000
    4.3077    2.2817    0.0000 C   0  0  0  0  0  0  0  0  0  0  0  0
    3.5201    2.0293    0.0000 C   0  0  0  0  0  0  0  0  0  0  0  0
    2.8536    2.5189    0.0000 N   0  0  0  0  0  0  0  0  0  0  0  0
    2.1871    2.0293    0.0000 N   0  0  0  0  0  0  0  0  0  0  0  0
    2.4407    1.2448    0.0000 C   0  0  0  0  0  0  0  0  0  0  0  0
    2.1856    0.4550    0.0000 S   0  0  0  0  0  0  0  0  0  0  0  0
    2.8561   -0.0278    0.0000 C   0  0  0  0  0  0  0  0  0  0  0  0
    2.8590   -0.8548    0.0000 C   0  0  0  0  0  0  0  0  0  0  0  0
    3.5766   -1.2658    0.0000 O   0  0  0  0  0  0  0  0  0  0  0  0
    2.1442   -1.2708    0.0000 N   0  0  0  0  0  0  0  0  0  0  0  0
    2.1471   -2.0978    0.0000 C   0  0  0  0  0  0  0  0  0  0  0  0
    1.4324   -2.5138    0.0000 C   0  0  0  0  0  0  0  0  0  0  0  0
    0.7147   -2.1028    0.0000 C   0  0  0  0  0  0  0  0  0  0  0  0
    0.0000   -2.5189    0.0000 C   0  0  0  0  0  0  0  0  0  0  0  0
    0.7118   -1.2759    0.0000 C   0  0  0  0  0  0  0  0  0  0  0  0
    1.4266   -0.8598    0.0000 C   0  0  0  0  0  0  0  0  0  0  0  0
    3.5231    0.4597    0.0000 C   0  0  0  0  0  0  0  0  0  0  0  0
    3.2665    1.2448    0.0000 C   0  0  0  0  0  0  0  0  0  0  0  0
  1  2  1  0  0  0
  2 18  2  0  0  0
  2  3  1  0  0  0
  3  4  1  0  0  0
  4  5  2  0  0  0
  5 18  1  0  0  0
  5  6  1  0  0  0
  6  7  1  0  0  0
  7  8  1  0  0  0
  8  9  2  0  0  0
  8 10  1  0  0  0
 10 16  1  0  0  0
 10 11  1  0  0  0
 11 12  1  0  0  0
 12 13  1  0  0  0
 13 14  1  0  0  0
 13 15  1  0  0  0
 15 16  1  0  0  0
  7 17  2  0  0  0
 17 18  1  0  0  0
M  END
>  <Entry>
137

>  <title>
12-9518

>  <rigid docking scores>
-16.9374

>  <InChIKey>
KFQQTAUCQBJUAL-UHFFFAOYSA-N

$$$$
atoms 20 bonds 22
dotmatics
mol io
 20 22  0  0  0  0  0  0  0  0999 V2000
   -0.6494    2.1015    0.0000 O   0  0  0  0  0  0  0  0  0  0  0  0
   -1.0629    1.3853    0.0000 C   0  0  0  0  0  0  0  0  0  0  0  0
   -0.6494    0.6691    0.0000 N   0  0  0  0  0  0  0  0  0  0  0  0
    0.1776    0.6691    0.0000 C   0  0  0  0  0  0  0  0  0  0  0  0
    0.6637    1.3381    0.0000 N   0  0  0  0  0  0  0  0  0  0  0  0
    1.4503    1.0826    0.0000 C   0  0  0  0  0  0  0  0  0  0  0  0
    2.1193    1.5687    0.0000 C   0  0  0  0  0  0  0  0  0  0  0  0
    2.0329    2.3911    0.0000 C   0  0  0  0  0  0  0  0  0  0  0  0
    2.7019    2.8772    0.0000 N   0  0  0  0  0  0  0  0  0  0  0  0
    3.4574    2.5409    0.0000 C   0  0  0  0  0  0  0  0  0  0  0  0
    3.5439    1.7184    0.0000 N   0  0  0  0  0  0  0  0  0  0  0  0
    2.8748    1.2323    0.0000 C   0  0  0  0  0  0  0  0  0  0  0  0
    1.4503    0.2556    0.0000 C   0  0  0  0  0  0  0  0  0  0  0  0
    0.6637   -0.0000    0.0000 S   0  0  0  0  0  0  0  0  0  0  0  0
   -1.8899    1.3853    0.0000 C   0  0  0  0  0  0  0  0  0  0  0  0
   -2.3034    0.6691    0.0000 C   0  0  0  0  0  0  0  0  0  0  0  0
   -3.1304    0.6691    0.0000 C   0  0  0  0  0  0  0  0  0  0  0  0
   -3.5439    1.3853    0.0000 C   0  0  0  0  0  0  0  0  0  0  0  0
   -3.1304    2.1015    0.0000 C   0  0  0  0  0  0  0  0  0  0  0  0
   -2.3034    2.1015    0.0000 C   0  0  0  0  0  0  0  0  0  0  0  0
  1  2  2  0  0  0
  2  3  1  0  0  0
  3  4  1  0  0  0
  4 14  1  0  0  0
  4  5  2  0  0  0
  5  6  1  0  0  0
  6  7  1  0  0  0
  7 12  1  0  0  0
  7  8  2  0  0  0
  8  9  1  0  0  0
  9 10  2  0  0  0
 10 11  1  0  0  0
 11 12  2  0  0  0
  6 13  2  0  0  0
 13 14  1  0  0  0
  2 15  1  0  0  0
 15 20  1  0  0  0
 15 16  1  0  0  0
 16 17  1  0  0  0
 17 18  1  0  0  0
 18 19  1  0  0  0
 19 20  1  0  0  0
M  END
>  <Entry>
138

>  <title>
12-9565

>  <rigid docking scores>
-17.6288

>  <InChIKey>
JQLJNZMAALOTNR-UHFFFAOYSA-N

$$$$
atoms 22 bonds 24
dotmatics
mol io
 22 24  0  0  0  0  0  0  0  0999 V2000
    5.3586    3.0460    0.0000 C   0  0  0  0  0  0  0  0  0  0  0  0
    5.3586    2.2190    0.0000 N   0  0  0  0  0  0  0  0  0  0  0  0
    6.1037    1.8602    0.0000 C   0  0  0  0  0  0  0  0  0  0  0  0
    6.2877    1.0539    0.0000 C   0  0  0  0  0  0  0  0  0  0  0  0
    5.7721    0.4073    0.0000 C   0  0  0  0  0  0  0  0  0  0  0  0
    4.9451    0.4073    0.0000 N   0  0  0  0  0  0  0  0  0  0  0  0
    4.5863   -0.3378    0.0000 C   0  0  0  0  0  0  0  0  0  0  0  0
    5.0522   -1.0211    0.0000 O   0  0  0  0  0  0  0  0  0  0  0  0
    3.7616   -0.3996    0.0000 C   0  0  0  0  0  0  0  0  0  0  0  0
    3.3269   -1.1031    0.0000 C   0  0  0  0  0  0  0  0  0  0  0  0
    2.5234   -0.9070    0.0000 N   0  0  0  0  0  0  0  0  0  0  0  0
    1.8926   -1.4418    0.0000 C   0  0  0  0  0  0  0  0  0  0  0  0
    2.0402   -2.2555    0.0000 C   0  0  0  0  0  0  0  0  0  0  0  0
    1.4094   -2.7902    0.0000 C   0  0  0  0  0  0  0  0  0  0  0  0
    0.6309   -2.5112    0.0000 C   0  0  0  0  0  0  0  0  0  0  0  0
    0.0000   -3.0460    0.0000 F   0  0  0  0  0  0  0  0  0  0  0  0
    0.4832   -1.6975    0.0000 C   0  0  0  0  0  0  0  0  0  0  0  0
    1.1141   -1.1628    0.0000 C   0  0  0  0  0  0  0  0  0  0  0  0
    2.4616   -0.0823    0.0000 N   0  0  0  0  0  0  0  0  0  0  0  0
    3.2269    0.2313    0.0000 N   0  0  0  0  0  0  0  0  0  0  0  0
    4.4295    1.0539    0.0000 C   0  0  0  0  0  0  0  0  0  0  0  0
    4.6135    1.8602    0.0000 C   0  0  0  0  0  0  0  0  0  0  0  0
  1  2  1  0  0  0
  2 22  1  0  0  0
  2  3  1  0  0  0
  3  4  1  0  0  0
  4  5  1  0  0  0
  5  6  1  0  0  0
  6  7  1  0  0  0
  7  8  2  0  0  0
  7  9  1  0  0  0
  9 20  1  0  0  0
  9 10  2  0  0  0
 10 11  1  0  0  0
 11 12  1  0  0  0
 12 18  1  0  0  0
 12 13  2  0  0  0
 13 14  1  0  0  0
 14 15  2  0  0  0
 15 16  1  0  0  0
 15 17  1  0  0  0
 17 18  2  0  0  0
 11 19  1  0  0  0
 19 20  2  0  0  0
  6 21  1  0  0  0
 21 22  1  0  0  0
M  END
>  <Entry>
139

>  <title>
12-9700

>  <rigid docking scores>
-15.8887

>  <InChIKey>
PLLKZMDVAZSSKP-UHFFFAOYSA-N

$$$$
atoms 20 bonds 22
dotmatics
mol io
 20 22  0  0  0  0  0  0  0  0999 V2000
    4.4925    2.3580    0.0000 C   0  0  0  0  0  0  0  0  0  0  0  0
    4.4925    1.5310    0.0000 N   0  0  0  0  0  0  0  0  0  0  0  0
    5.2087    1.1175    0.0000 C   0  0  0  0  0  0  0  0  0  0  0  0
    5.2087    0.2905    0.0000 C   0  0  0  0  0  0  0  0  0  0  0  0
    4.4925   -0.1230    0.0000 N   0  0  0  0  0  0  0  0  0  0  0  0
    4.4925   -0.9500    0.0000 C   0  0  0  0  0  0  0  0  0  0  0  0
    5.2087   -1.3635    0.0000 O   0  0  0  0  0  0  0  0  0  0  0  0
    3.7763   -1.3635    0.0000 C   0  0  0  0  0  0  0  0  0  0  0  0
    3.6898   -2.1860    0.0000 N   0  0  0  0  0  0  0  0  0  0  0  0
    2.8809   -2.3580    0.0000 N   0  0  0  0  0  0  0  0  0  0  0  0
    2.4674   -1.6418    0.0000 C   0  0  0  0  0  0  0  0  0  0  0  0
    1.6449   -1.5553    0.0000 C   0  0  0  0  0  0  0  0  0  0  0  0
    1.1588   -2.2244    0.0000 C   0  0  0  0  0  0  0  0  0  0  0  0
    0.3364   -2.1379    0.0000 C   0  0  0  0  0  0  0  0  0  0  0  0
    0.0000   -1.3824    0.0000 C   0  0  0  0  0  0  0  0  0  0  0  0
    0.4861   -0.7134    0.0000 N   0  0  0  0  0  0  0  0  0  0  0  0
    1.3086   -0.7998    0.0000 C   0  0  0  0  0  0  0  0  0  0  0  0
    3.0208   -1.0272    0.0000 S   0  0  0  0  0  0  0  0  0  0  0  0
    3.7763    0.2905    0.0000 C   0  0  0  0  0  0  0  0  0  0  0  0
    3.7763    1.1175    0.0000 C   0  0  0  0  0  0  0  0  0  0  0  0
  1  2  1  0  0  0
  2 20  1  0  0  0
  2  3  1  0  0  0
  3  4  1  0  0  0
  4  5  1  0  0  0
  5  6  1  0  0  0
  6  7  2  0  0  0
  6  8  1  0  0  0
  8 18  1  0  0  0
  8  9  2  0  0  0
  9 10  1  0  0  0
 10 11  2  0  0  0
 11 12  1  0  0  0
 12 17  1  0  0  0
 12 13  2  0  0  0
 13 14  1  0  0  0
 14 15  2  0  0  0
 15 16  1  0  0  0
 16 17  2  0  0  0
 11 18  1  0  0  0
  5 19  1  0  0  0
 19 20  1  0  0  0
M  END
>  <Entry>
140

>  <title>
12-9821

>  <rigid docking scores>
-18.1902

>  <InChIKey>
IONKYCKPNNKBNJ-UHFFFAOYSA-N

$$$$
atoms 19 bonds 20
dotmatics
mol io
 19 20  0  0  0  0  0  0  0  0999 V2000
   -2.9015    4.3294    0.0000 C   0  0  0  0  0  0  0  0  0  0  0  0
   -2.4880    3.6132    0.0000 C   0  0  0  0  0  0  0  0  0  0  0  0
   -1.6610    3.6132    0.0000 N   0  0  0  0  0  0  0  0  0  0  0  0
   -1.2475    2.8970    0.0000 C   0  0  0  0  0  0  0  0  0  0  0  0
   -1.6610    2.1808    0.0000 O   0  0  0  0  0  0  0  0  0  0  0  0
   -0.4205    2.8970    0.0000 C   0  0  0  0  0  0  0  0  0  0  0  0
   -0.0617    3.6421    0.0000 C   0  0  0  0  0  0  0  0  0  0  0  0
    0.7445    3.8261    0.0000 C   0  0  0  0  0  0  0  0  0  0  0  0
    1.3911    3.3105    0.0000 C   0  0  0  0  0  0  0  0  0  0  0  0
    1.3911    2.4835    0.0000 N   0  0  0  0  0  0  0  0  0  0  0  0
    2.1362    2.1247    0.0000 C   0  0  0  0  0  0  0  0  0  0  0  0
    2.8195    2.5905    0.0000 O   0  0  0  0  0  0  0  0  0  0  0  0
    2.1980    1.3000    0.0000 C   0  0  0  0  0  0  0  0  0  0  0  0
    2.9015    0.8652    0.0000 C   0  0  0  0  0  0  0  0  0  0  0  0
    2.7055    0.0618    0.0000 S   0  0  0  0  0  0  0  0  0  0  0  0
    1.8808   -0.0000    0.0000 N   0  0  0  0  0  0  0  0  0  0  0  0
    1.5672    0.7652    0.0000 N   0  0  0  0  0  0  0  0  0  0  0  0
    0.7445    1.9678    0.0000 C   0  0  0  0  0  0  0  0  0  0  0  0
   -0.0617    2.1519    0.0000 C   0  0  0  0  0  0  0  0  0  0  0  0
  1  2  1  0  0  0
  2  3  1  0  0  0
  3  4  1  0  0  0
  4  5  2  0  0  0
  4  6  1  0  0  0
  6 19  1  0  0  0
  6  7  1  0  0  0
  7  8  1  0  0  0
  8  9  1  0  0  0
  9 10  1  0  0  0
 10 11  1  0  0  0
 11 12  2  0  0  0
 11 13  1  0  0  0
 13 17  1  0  0  0
 13 14  2  0  0  0
 14 15  1  0  0  0
 15 16  1  0  0  0
 16 17  2  0  0  0
 10 18  1  0  0  0
 18 19  1  0  0  0
M  END
>  <Entry>
141

>  <title>
12-9884

>  <rigid docking scores>
-18.3262

>  <InChIKey>
RFRCNEURSIWFOZ-UHFFFAOYSA-N

$$$$
atoms 20 bonds 23
dotmatics
mol io
 20 23  0  0  0  0  0  0  0  0999 V2000
    6.1796   -1.9294    0.0000 C   0  0  0  0  0  0  0  0  0  0  0  0
    5.5125   -1.4406    0.0000 C   0  0  0  0  0  0  0  0  0  0  0  0
    4.7250   -1.6930    0.0000 C   0  0  0  0  0  0  0  0  0  0  0  0
    4.2416   -1.0220    0.0000 S   0  0  0  0  0  0  0  0  0  0  0  0
    4.7303   -0.3549    0.0000 C   0  0  0  0  0  0  0  0  0  0  0  0
    4.4779    0.4326    0.0000 C   0  0  0  0  0  0  0  0  0  0  0  0
    4.9690    1.1011    0.0000 N   0  0  0  0  0  0  0  0  0  0  0  0
    4.4779    1.7696    0.0000 N   0  0  0  0  0  0  0  0  0  0  0  0
    3.6911    1.5153    0.0000 C   0  0  0  0  0  0  0  0  0  0  0  0
    3.6911    0.6870    0.0000 C   0  0  0  0  0  0  0  0  0  0  0  0
    2.9752    0.2729    0.0000 C   0  0  0  0  0  0  0  0  0  0  0  0
    2.2594    0.6870    0.0000 N   0  0  0  0  0  0  0  0  0  0  0  0
    1.5436    0.2729    0.0000 C   0  0  0  0  0  0  0  0  0  0  0  0
    1.5443   -0.5541    0.0000 O   0  0  0  0  0  0  0  0  0  0  0  0
    0.8270    0.6858    0.0000 C   0  0  0  0  0  0  0  0  0  0  0  0
    0.0000    0.6850    0.0000 C   0  0  0  0  0  0  0  0  0  0  0  0
    0.4129    1.4016    0.0000 C   0  0  0  0  0  0  0  0  0  0  0  0
    2.2594    1.5153    0.0000 C   0  0  0  0  0  0  0  0  0  0  0  0
    2.9752    1.9294    0.0000 C   0  0  0  0  0  0  0  0  0  0  0  0
    5.5158   -0.6136    0.0000 N   0  0  0  0  0  0  0  0  0  0  0  0
  1  2  1  0  0  0
  2 20  1  0  0  0
  2  3  2  0  0  0
  3  4  1  0  0  0
  4  5  1  0  0  0
  5  6  1  0  0  0
  6 10  2  0  0  0
  6  7  1  0  0  0
  7  8  1  0  0  0
  8  9  2  0  0  0
  9 19  1  0  0  0
  9 10  1  0  0  0
 10 11  1  0  0  0
 11 12  1  0  0  0
 12 13  1  0  0  0
 13 14  2  0  0  0
 13 15  1  0  0  0
 15 17  1  0  0  0
 15 16  1  0  0  0
 16 17  1  0  0  0
 12 18  1  0  0  0
 18 19  1  0  0  0
  5 20  2  0  0  0
M  END
>  <Entry>
142

>  <title>
13-311

>  <rigid docking scores>
-16.494

>  <InChIKey>
AISAWMAZEMKZMS-UHFFFAOYSA-N

$$$$
atoms 25 bonds 27
dotmatics
mol io
 25 27  0  0  0  0  0  0  0  0999 V2000
   -3.9283    5.0134    0.0000 C   0  0  0  0  0  0  0  0  0  0  0  0
   -3.5148    4.2972    0.0000 N   0  0  0  0  0  0  0  0  0  0  0  0
   -2.6878    4.2972    0.0000 C   0  0  0  0  0  0  0  0  0  0  0  0
   -2.2743    5.0134    0.0000 C   0  0  0  0  0  0  0  0  0  0  0  0
   -1.4473    5.0134    0.0000 C   0  0  0  0  0  0  0  0  0  0  0  0
   -1.0338    4.2972    0.0000 C   0  0  0  0  0  0  0  0  0  0  0  0
   -1.4473    3.5810    0.0000 C   0  0  0  0  0  0  0  0  0  0  0  0
   -1.0338    2.8648    0.0000 C   0  0  0  0  0  0  0  0  0  0  0  0
   -0.2068    2.8648    0.0000 N   0  0  0  0  0  0  0  0  0  0  0  0
    0.2067    3.5810    0.0000 C   0  0  0  0  0  0  0  0  0  0  0  0
    1.0337    3.5810    0.0000 C   0  0  0  0  0  0  0  0  0  0  0  0
    1.4472    2.8648    0.0000 N   0  0  0  0  0  0  0  0  0  0  0  0
    2.2742    2.8648    0.0000 C   0  0  0  0  0  0  0  0  0  0  0  0
    2.6877    3.5810    0.0000 C   0  0  0  0  0  0  0  0  0  0  0  0
    3.5148    3.5810    0.0000 C   0  0  0  0  0  0  0  0  0  0  0  0
    3.9283    4.2972    0.0000 C   0  0  0  0  0  0  0  0  0  0  0  0
    3.5148    5.0134    0.0000 C   0  0  0  0  0  0  0  0  0  0  0  0
    2.6878    5.0134    0.0000 C   0  0  0  0  0  0  0  0  0  0  0  0
    2.2743    4.2972    0.0000 C   0  0  0  0  0  0  0  0  0  0  0  0
    1.0337    2.1486    0.0000 C   0  0  0  0  0  0  0  0  0  0  0  0
    1.4472    1.4324    0.0000 C   0  0  0  0  0  0  0  0  0  0  0  0
    1.0338    0.7162    0.0000 C   0  0  0  0  0  0  0  0  0  0  0  0
    1.4473   -0.0000    0.0000 O   0  0  0  0  0  0  0  0  0  0  0  0
    0.2067    2.1486    0.0000 C   0  0  0  0  0  0  0  0  0  0  0  0
   -2.2743    3.5810    0.0000 N   0  0  0  0  0  0  0  0  0  0  0  0
  1  2  1  0  0  0
  2  3  1  0  0  0
  3 25  1  0  0  0
  3  4  2  0  0  0
  4  5  1  0  0  0
  5  6  2  0  0  0
  6  7  1  0  0  0
  7  8  1  0  0  0
  8  9  1  0  0  0
  9 24  1  0  0  0
  9 10  1  0  0  0
 10 11  1  0  0  0
 11 12  1  0  0  0
 12 13  1  0  0  0
 13 14  1  0  0  0
 14 19  1  0  0  0
 14 15  2  0  0  0
 15 16  1  0  0  0
 16 17  2  0  0  0
 17 18  1  0  0  0
 18 19  2  0  0  0
 12 20  1  0  0  0
 20 21  1  0  0  0
 21 22  1  0  0  0
 22 23  1  0  0  0
 20 24  1  0  0  0
  7 25  2  0  0  0
M  END
>  <Entry>
143

>  <title>
13-436

>  <rigid docking scores>
-17.0099

>  <InChIKey>
ZKAKSHOYVNMQME-UHFFFAOYSA-N

$$$$
atoms 19 bonds 21
dotmatics
mol io
 19 21  0  0  0  0  0  0  0  0999 V2000
    6.2094   -1.0741    0.0000 C   0  0  0  0  0  0  0  0  0  0  0  0
    5.3824   -1.0741    0.0000 C   0  0  0  0  0  0  0  0  0  0  0  0
    4.9682   -1.7900    0.0000 C   0  0  0  0  0  0  0  0  0  0  0  0
    4.1400   -1.7900    0.0000 C   0  0  0  0  0  0  0  0  0  0  0  0
    3.7259   -1.0741    0.0000 N   0  0  0  0  0  0  0  0  0  0  0  0
    2.8976   -1.0741    0.0000 C   0  0  0  0  0  0  0  0  0  0  0  0
    2.4835   -1.7900    0.0000 C   0  0  0  0  0  0  0  0  0  0  0  0
    1.6552   -1.7900    0.0000 C   0  0  0  0  0  0  0  0  0  0  0  0
    1.2411   -1.0741    0.0000 N   0  0  0  0  0  0  0  0  0  0  0  0
    1.6552   -0.3583    0.0000 C   0  0  0  0  0  0  0  0  0  0  0  0
    1.2411    0.3576    0.0000 C   0  0  0  0  0  0  0  0  0  0  0  0
    0.4141    0.3568    0.0000 C   0  0  0  0  0  0  0  0  0  0  0  0
    0.0000    1.0727    0.0000 C   0  0  0  0  0  0  0  0  0  0  0  0
    0.4129    1.7892    0.0000 C   0  0  0  0  0  0  0  0  0  0  0  0
    1.2399    1.7900    0.0000 N   0  0  0  0  0  0  0  0  0  0  0  0
    1.6540    1.0741    0.0000 C   0  0  0  0  0  0  0  0  0  0  0  0
    2.4835   -0.3583    0.0000 N   0  0  0  0  0  0  0  0  0  0  0  0
    4.1400   -0.3583    0.0000 C   0  0  0  0  0  0  0  0  0  0  0  0
    4.9682   -0.3583    0.0000 C   0  0  0  0  0  0  0  0  0  0  0  0
  1  2  1  0  0  0
  2 19  1  0  0  0
  2  3  1  0  0  0
  3  4  1  0  0  0
  4  5  1  0  0  0
  5  6  1  0  0  0
  6 17  1  0  0  0
  6  7  2  0  0  0
  7  8  1  0  0  0
  8  9  2  0  0  0
  9 10  1  0  0  0
 10 11  1  0  0  0
 11 16  1  0  0  0
 11 12  2  0  0  0
 12 13  1  0  0  0
 13 14  2  0  0  0
 14 15  1  0  0  0
 15 16  2  0  0  0
 10 17  2  0  0  0
  5 18  1  0  0  0
 18 19  1  0  0  0
M  END
>  <Entry>
144

>  <title>
13-966

>  <rigid docking scores>
-16.2519

>  <InChIKey>
KCCTYQPHYHSHFS-UHFFFAOYSA-N

$$$$
atoms 23 bonds 26
dotmatics
mol io
 23 26  0  0  0  0  0  0  0  0999 V2000
    6.8667   -1.8756    0.0000 C   0  0  0  0  0  0  0  0  0  0  0  0
    6.0397   -1.8764    0.0000 C   0  0  0  0  0  0  0  0  0  0  0  0
    5.7835   -1.0901    0.0000 O   0  0  0  0  0  0  0  0  0  0  0  0
    6.4521   -0.6034    0.0000 C   0  0  0  0  0  0  0  0  0  0  0  0
    6.4514    0.2236    0.0000 C   0  0  0  0  0  0  0  0  0  0  0  0
    5.7348    0.6365    0.0000 N   0  0  0  0  0  0  0  0  0  0  0  0
    5.0190    0.2224    0.0000 C   0  0  0  0  0  0  0  0  0  0  0  0
    4.3024    0.6352    0.0000 C   0  0  0  0  0  0  0  0  0  0  0  0
    4.3017    1.4622    0.0000 C   0  0  0  0  0  0  0  0  0  0  0  0
    3.5851    1.8751    0.0000 N   0  0  0  0  0  0  0  0  0  0  0  0
    2.8693    1.4610    0.0000 C   0  0  0  0  0  0  0  0  0  0  0  0
    2.8693    0.6327    0.0000 N   0  0  0  0  0  0  0  0  0  0  0  0
    2.1534    0.2186    0.0000 C   0  0  0  0  0  0  0  0  0  0  0  0
    1.4317    0.6327    0.0000 C   0  0  0  0  0  0  0  0  0  0  0  0
    0.7158    0.2186    0.0000 C   0  0  0  0  0  0  0  0  0  0  0  0
    0.0000    0.6327    0.0000 C   0  0  0  0  0  0  0  0  0  0  0  0
    0.0000    1.4610    0.0000 C   0  0  0  0  0  0  0  0  0  0  0  0
    0.7158    1.8751    0.0000 C   0  0  0  0  0  0  0  0  0  0  0  0
    1.4317    1.4610    0.0000 C   0  0  0  0  0  0  0  0  0  0  0  0
    2.1534    1.8751    0.0000 N   0  0  0  0  0  0  0  0  0  0  0  0
    5.0175    1.8764    0.0000 C   0  0  0  0  0  0  0  0  0  0  0  0
    5.7341    1.4635    0.0000 C   0  0  0  0  0  0  0  0  0  0  0  0
    7.1216   -1.0889    0.0000 C   0  0  0  0  0  0  0  0  0  0  0  0
  1 23  1  0  0  0
  1  2  2  0  0  0
  2  3  1  0  0  0
  3  4  1  0  0  0
  4  5  1  0  0  0
  5  6  1  0  0  0
  6 22  1  0  0  0
  6  7  1  0  0  0
  7  8  1  0  0  0
  8  9  1  0  0  0
  9 10  1  0  0  0
 10 11  1  0  0  0
 11 20  1  0  0  0
 11 12  2  0  0  0
 12 13  1  0  0  0
 13 14  2  0  0  0
 14 19  1  0  0  0
 14 15  1  0  0  0
 15 16  2  0  0  0
 16 17  1  0  0  0
 17 18  2  0  0  0
 18 19  1  0  0  0
 19 20  2  0  0  0
  9 21  1  0  0  0
 21 22  1  0  0  0
  4 23  2  0  0  0
M  END
>  <Entry>
145

>  <title>
13-1086

>  <rigid docking scores>
-17.0578

>  <InChIKey>
LXPVRXSWMMNWHP-UHFFFAOYSA-N

$$$$
atoms 23 bonds 25
dotmatics
mol io
 23 25  0  0  0  0  0  0  0  0999 V2000
   -0.4689    4.2972    0.0000 O   0  0  0  0  0  0  0  0  0  0  0  0
   -0.8824    3.5810    0.0000 C   0  0  0  0  0  0  0  0  0  0  0  0
   -0.4689    2.8648    0.0000 C   0  0  0  0  0  0  0  0  0  0  0  0
    0.3581    2.8648    0.0000 N   0  0  0  0  0  0  0  0  0  0  0  0
    0.7716    2.1486    0.0000 C   0  0  0  0  0  0  0  0  0  0  0  0
    1.5986    2.1486    0.0000 O   0  0  0  0  0  0  0  0  0  0  0  0
    0.3581    1.4324    0.0000 C   0  0  0  0  0  0  0  0  0  0  0  0
   -0.4689    1.4324    0.0000 C   0  0  0  0  0  0  0  0  0  0  0  0
   -0.8824    0.7162    0.0000 C   0  0  0  0  0  0  0  0  0  0  0  0
   -0.4689    0.0000    0.0000 C   0  0  0  0  0  0  0  0  0  0  0  0
    0.3581    0.0000    0.0000 C   0  0  0  0  0  0  0  0  0  0  0  0
    0.7716    0.7162    0.0000 C   0  0  0  0  0  0  0  0  0  0  0  0
    0.7716    3.5810    0.0000 C   0  0  0  0  0  0  0  0  0  0  0  0
    0.3581    4.2972    0.0000 C   0  0  0  0  0  0  0  0  0  0  0  0
    0.7716    5.0134    0.0000 C   0  0  0  0  0  0  0  0  0  0  0  0
    1.5986    5.0134    0.0000 C   0  0  0  0  0  0  0  0  0  0  0  0
    2.0121    4.2972    0.0000 C   0  0  0  0  0  0  0  0  0  0  0  0
    2.8391    4.2972    0.0000 F   0  0  0  0  0  0  0  0  0  0  0  0
    1.5986    3.5810    0.0000 C   0  0  0  0  0  0  0  0  0  0  0  0
   -1.7094    3.5810    0.0000 N   0  0  0  0  0  0  0  0  0  0  0  0
   -2.1229    4.2972    0.0000 C   0  0  0  0  0  0  0  0  0  0  0  0
   -2.8391    4.7107    0.0000 C   0  0  0  0  0  0  0  0  0  0  0  0
   -2.1229    5.1242    0.0000 C   0  0  0  0  0  0  0  0  0  0  0  0
  1  2  2  0  0  0
  2  3  1  0  0  0
  3  4  1  0  0  0
  4  5  1  0  0  0
  5  6  2  0  0  0
  5  7  1  0  0  0
  7 12  1  0  0  0
  7  8  2  0  0  0
  8  9  1  0  0  0
  9 10  2  0  0  0
 10 11  1  0  0  0
 11 12  2  0  0  0
  4 13  1  0  0  0
 13 19  1  0  0  0
 13 14  2  0  0  0
 14 15  1  0  0  0
 15 16  2  0  0  0
 16 17  1  0  0  0
 17 18  1  0  0  0
 17 19  2  0  0  0
  2 20  1  0  0  0
 20 21  1  0  0  0
 21 23  1  0  0  0
 21 22  1  0  0  0
 22 23  1  0  0  0
M  END
>  <Entry>
146

>  <title>
2-2638

>  <rigid docking scores>
-15.4998

>  <InChIKey>
GPGSYHZDOJRLOS-UHFFFAOYSA-N

$$$$
atoms 22 bonds 24
dotmatics
mol io
 22 24  0  0  0  0  0  0  0  0999 V2000
    0.8423    2.6014    0.0000 O   0  0  0  0  0  0  0  0  0  0  0  0
    0.4288    1.8852    0.0000 C   0  0  0  0  0  0  0  0  0  0  0  0
    0.8423    1.1690    0.0000 N   0  0  0  0  0  0  0  0  0  0  0  0
    1.6693    1.1690    0.0000 C   0  0  0  0  0  0  0  0  0  0  0  0
    2.1554    1.8381    0.0000 C   0  0  0  0  0  0  0  0  0  0  0  0
    2.9419    1.5825    0.0000 C   0  0  0  0  0  0  0  0  0  0  0  0
    2.9419    0.7555    0.0000 S   0  0  0  0  0  0  0  0  0  0  0  0
    3.7644    0.6691    0.0000 O   0  0  0  0  0  0  0  0  0  0  0  0
    3.2783   -0.0000    0.0000 O   0  0  0  0  0  0  0  0  0  0  0  0
    2.1554    0.4999    0.0000 C   0  0  0  0  0  0  0  0  0  0  0  0
   -0.3982    1.8852    0.0000 C   0  0  0  0  0  0  0  0  0  0  0  0
   -0.8843    1.2161    0.0000 C   0  0  0  0  0  0  0  0  0  0  0  0
   -1.6708    1.4717    0.0000 C   0  0  0  0  0  0  0  0  0  0  0  0
   -1.6708    2.2987    0.0000 N   0  0  0  0  0  0  0  0  0  0  0  0
   -2.3399    2.7848    0.0000 C   0  0  0  0  0  0  0  0  0  0  0  0
   -2.2534    3.6073    0.0000 C   0  0  0  0  0  0  0  0  0  0  0  0
   -2.9225    4.0934    0.0000 C   0  0  0  0  0  0  0  0  0  0  0  0
   -3.6780    3.7570    0.0000 C   0  0  0  0  0  0  0  0  0  0  0  0
   -3.7644    2.9345    0.0000 C   0  0  0  0  0  0  0  0  0  0  0  0
   -3.0954    2.4484    0.0000 C   0  0  0  0  0  0  0  0  0  0  0  0
   -3.1818    1.6260    0.0000 Cl  0  0  0  0  0  0  0  0  0  0  0  0
   -0.8843    2.5543    0.0000 N   0  0  0  0  0  0  0  0  0  0  0  0
  1  2  2  0  0  0
  2  3  1  0  0  0
  3  4  1  0  0  0
  4 10  1  0  0  0
  4  5  1  0  0  0
  5  6  1  0  0  0
  6  7  1  0  0  0
  7  8  2  0  0  0
  7  9  2  0  0  0
  7 10  1  0  0  0
  2 11  1  0  0  0
 11 22  2  0  0  0
 11 12  1  0  0  0
 12 13  2  0  0  0
 13 14  1  0  0  0
 14 15  1  0  0  0
 15 20  1  0  0  0
 15 16  2  0  0  0
 16 17  1  0  0  0
 17 18  2  0  0  0
 18 19  1  0  0  0
 19 20  2  0  0  0
 20 21  1  0  0  0
 14 22  1  0  0  0
M  END
>  <Entry>
147

>  <title>
13-1273

>  <rigid docking scores>
-16.4826

>  <InChIKey>
UYOOZZIHAIPFMB-UHFFFAOYSA-N

$$$$
atoms 20 bonds 22
dotmatics
mol io
 20 22  0  0  0  0  0  0  0  0999 V2000
   -4.1019    3.1983    0.0000 C   0  0  0  0  0  0  0  0  0  0  0  0
   -3.2749    3.1983    0.0000 C   0  0  0  0  0  0  0  0  0  0  0  0
   -2.7888    3.8674    0.0000 C   0  0  0  0  0  0  0  0  0  0  0  0
   -2.0023    3.6118    0.0000 C   0  0  0  0  0  0  0  0  0  0  0  0
   -2.0023    2.7848    0.0000 C   0  0  0  0  0  0  0  0  0  0  0  0
   -1.3333    2.2987    0.0000 C   0  0  0  0  0  0  0  0  0  0  0  0
   -0.5467    2.5543    0.0000 N   0  0  0  0  0  0  0  0  0  0  0  0
   -0.0606    1.8852    0.0000 C   0  0  0  0  0  0  0  0  0  0  0  0
    0.7664    1.8852    0.0000 C   0  0  0  0  0  0  0  0  0  0  0  0
    1.1799    1.1690    0.0000 N   0  0  0  0  0  0  0  0  0  0  0  0
    2.0069    1.1690    0.0000 C   0  0  0  0  0  0  0  0  0  0  0  0
    2.4930    1.8381    0.0000 C   0  0  0  0  0  0  0  0  0  0  0  0
    3.2795    1.5825    0.0000 C   0  0  0  0  0  0  0  0  0  0  0  0
    3.2795    0.7555    0.0000 S   0  0  0  0  0  0  0  0  0  0  0  0
    4.1019    0.6691    0.0000 O   0  0  0  0  0  0  0  0  0  0  0  0
    3.6158   -0.0000    0.0000 O   0  0  0  0  0  0  0  0  0  0  0  0
    2.4930    0.4999    0.0000 C   0  0  0  0  0  0  0  0  0  0  0  0
   -0.5467    1.2161    0.0000 C   0  0  0  0  0  0  0  0  0  0  0  0
   -1.3333    1.4717    0.0000 S   0  0  0  0  0  0  0  0  0  0  0  0
   -2.7888    2.5292    0.0000 S   0  0  0  0  0  0  0  0  0  0  0  0
  1  2  1  0  0  0
  2 20  1  0  0  0
  2  3  2  0  0  0
  3  4  1  0  0  0
  4  5  2  0  0  0
  5  6  1  0  0  0
  6 19  1  0  0  0
  6  7  2  0  0  0
  7  8  1  0  0  0
  8  9  1  0  0  0
  9 10  1  0  0  0
 10 11  1  0  0  0
 11 17  1  0  0  0
 11 12  1  0  0  0
 12 13  1  0  0  0
 13 14  1  0  0  0
 14 15  2  0  0  0
 14 16  2  0  0  0
 14 17  1  0  0  0
  8 18  2  0  0  0
 18 19  1  0  0  0
  5 20  1  0  0  0
M  END
>  <Entry>
148

>  <title>
13-1303

>  <rigid docking scores>
-18.3751

>  <InChIKey>
UXJNGSHZHCSDHS-UHFFFAOYSA-N

$$$$
atoms 23 bonds 25
dotmatics
mol io
 23 25  0  0  0  0  0  0  0  0999 V2000
    5.3811   -1.1304    0.0000 C   0  0  0  0  0  0  0  0  0  0  0  0
    4.9682   -0.4139    0.0000 N   0  0  0  0  0  0  0  0  0  0  0  0
    4.1412   -0.4131    0.0000 C   0  0  0  0  0  0  0  0  0  0  0  0
    3.7271   -1.1290    0.0000 C   0  0  0  0  0  0  0  0  0  0  0  0
    4.1412   -1.8448    0.0000 C   0  0  0  0  0  0  0  0  0  0  0  0
    3.7271   -2.5607    0.0000 C   0  0  0  0  0  0  0  0  0  0  0  0
    2.8989   -2.5607    0.0000 N   0  0  0  0  0  0  0  0  0  0  0  0
    2.4847   -1.8448    0.0000 C   0  0  0  0  0  0  0  0  0  0  0  0
    1.6565   -1.8448    0.0000 C   0  0  0  0  0  0  0  0  0  0  0  0
    1.2424   -2.5607    0.0000 C   0  0  0  0  0  0  0  0  0  0  0  0
    0.4141   -2.5607    0.0000 C   0  0  0  0  0  0  0  0  0  0  0  0
    0.0000   -1.8448    0.0000 N   0  0  0  0  0  0  0  0  0  0  0  0
    0.4141   -1.1290    0.0000 C   0  0  0  0  0  0  0  0  0  0  0  0
    1.2424   -1.1290    0.0000 C   0  0  0  0  0  0  0  0  0  0  0  0
    2.8989   -1.1290    0.0000 N   0  0  0  0  0  0  0  0  0  0  0  0
    5.3824    0.3020    0.0000 C   0  0  0  0  0  0  0  0  0  0  0  0
    4.9695    1.0185    0.0000 C   0  0  0  0  0  0  0  0  0  0  0  0
    5.3836    1.7344    0.0000 C   0  0  0  0  0  0  0  0  0  0  0  0
    6.2106    1.7337    0.0000 S   0  0  0  0  0  0  0  0  0  0  0  0
    6.2113    2.5607    0.0000 O   0  0  0  0  0  0  0  0  0  0  0  0
    6.9272    2.1465    0.0000 O   0  0  0  0  0  0  0  0  0  0  0  0
    6.6235    1.0171    0.0000 C   0  0  0  0  0  0  0  0  0  0  0  0
    6.2094    0.3013    0.0000 C   0  0  0  0  0  0  0  0  0  0  0  0
  1  2  1  0  0  0
  2  3  1  0  0  0
  3  4  1  0  0  0
  4 15  1  0  0  0
  4  5  2  0  0  0
  5  6  1  0  0  0
  6  7  2  0  0  0
  7  8  1  0  0  0
  8  9  1  0  0  0
  9 14  1  0  0  0
  9 10  2  0  0  0
 10 11  1  0  0  0
 11 12  2  0  0  0
 12 13  1  0  0  0
 13 14  2  0  0  0
  8 15  2  0  0  0
  2 16  1  0  0  0
 16 23  1  0  0  0
 16 17  1  0  0  0
 17 18  1  0  0  0
 18 19  1  0  0  0
 19 20  2  0  0  0
 19 21  2  0  0  0
 19 22  1  0  0  0
 22 23  1  0  0  0
M  END
>  <Entry>
149

>  <title>
13-1448

>  <rigid docking scores>
-17.1725

>  <InChIKey>
LKFUYHFFVLPWPH-UHFFFAOYSA-N

$$$$
atoms 20 bonds 22
dotmatics
mol io
 20 22  0  0  0  0  0  0  0  0999 V2000
   -0.2905    4.1737    0.0000 O   0  0  0  0  0  0  0  0  0  0  0  0
   -0.7040    3.4575    0.0000 C   0  0  0  0  0  0  0  0  0  0  0  0
   -0.2905    2.7413    0.0000 N   0  0  0  0  0  0  0  0  0  0  0  0
    0.5365    2.7413    0.0000 C   0  0  0  0  0  0  0  0  0  0  0  0
    0.9500    3.4575    0.0000 C   0  0  0  0  0  0  0  0  0  0  0  0
    1.7770    3.4575    0.0000 C   0  0  0  0  0  0  0  0  0  0  0  0
    2.1905    2.7413    0.0000 C   0  0  0  0  0  0  0  0  0  0  0  0
    1.7770    2.0251    0.0000 C   0  0  0  0  0  0  0  0  0  0  0  0
    2.1905    1.3089    0.0000 N   0  0  0  0  0  0  0  0  0  0  0  0
    3.0130    1.2224    0.0000 C   0  0  0  0  0  0  0  0  0  0  0  0
    3.1850    0.4135    0.0000 N   0  0  0  0  0  0  0  0  0  0  0  0
    2.4688   -0.0000    0.0000 N   0  0  0  0  0  0  0  0  0  0  0  0
    1.8542    0.5534    0.0000 N   0  0  0  0  0  0  0  0  0  0  0  0
    0.9500    2.0251    0.0000 C   0  0  0  0  0  0  0  0  0  0  0  0
   -1.5310    3.4575    0.0000 C   0  0  0  0  0  0  0  0  0  0  0  0
   -1.9445    2.7413    0.0000 C   0  0  0  0  0  0  0  0  0  0  0  0
   -2.7715    2.7413    0.0000 C   0  0  0  0  0  0  0  0  0  0  0  0
   -3.1850    3.4575    0.0000 C   0  0  0  0  0  0  0  0  0  0  0  0
   -2.7715    4.1737    0.0000 N   0  0  0  0  0  0  0  0  0  0  0  0
   -1.9445    4.1737    0.0000 C   0  0  0  0  0  0  0  0  0  0  0  0
  1  2  2  0  0  0
  2  3  1  0  0  0
  3  4  1  0  0  0
  4 14  1  0  0  0
  4  5  1  0  0  0
  5  6  1  0  0  0
  6  7  1  0  0  0
  7  8  1  0  0  0
  8  9  1  0  0  0
  9 13  1  0  0  0
  9 10  1  0  0  0
 10 11  2  0  0  0
 11 12  1  0  0  0
 12 13  2  0  0  0
  8 14  1  0  0  0
  2 15  1  0  0  0
 15 20  1  0  0  0
 15 16  2  0  0  0
 16 17  1  0  0  0
 17 18  2  0  0  0
 18 19  1  0  0  0
 19 20  2  0  0  0
M  END
>  <Entry>
150

>  <title>
13-1546

>  <rigid docking scores>
-15.366

>  <InChIKey>
FYTXZQNWPBWMCG-UHFFFAOYSA-N

$$$$
atoms 22 bonds 24
dotmatics
mol io
 22 24  0  0  0  0  0  0  0  0999 V2000
   -4.0102    2.6720    0.0000 C   0  0  0  0  0  0  0  0  0  0  0  0
   -3.1832    2.6720    0.0000 N   0  0  0  0  0  0  0  0  0  0  0  0
   -2.7697    1.9558    0.0000 C   0  0  0  0  0  0  0  0  0  0  0  0
   -3.1832    1.2396    0.0000 O   0  0  0  0  0  0  0  0  0  0  0  0
   -1.9427    1.9558    0.0000 C   0  0  0  0  0  0  0  0  0  0  0  0
   -1.5839    2.7009    0.0000 C   0  0  0  0  0  0  0  0  0  0  0  0
   -0.7776    2.8850    0.0000 C   0  0  0  0  0  0  0  0  0  0  0  0
   -0.1310    2.3693    0.0000 C   0  0  0  0  0  0  0  0  0  0  0  0
   -0.1310    1.5423    0.0000 N   0  0  0  0  0  0  0  0  0  0  0  0
    0.6141    1.1835    0.0000 C   0  0  0  0  0  0  0  0  0  0  0  0
    1.2974    1.6494    0.0000 C   0  0  0  0  0  0  0  0  0  0  0  0
    2.0425    1.2906    0.0000 C   0  0  0  0  0  0  0  0  0  0  0  0
    2.7258    1.7564    0.0000 C   0  0  0  0  0  0  0  0  0  0  0  0
    2.7505    2.5830    0.0000 C   0  0  0  0  0  0  0  0  0  0  0  0
    3.5443    2.8150    0.0000 C   0  0  0  0  0  0  0  0  0  0  0  0
    4.0102    2.1317    0.0000 C   0  0  0  0  0  0  0  0  0  0  0  0
    3.5043    1.4774    0.0000 S   0  0  0  0  0  0  0  0  0  0  0  0
    2.1043    0.4659    0.0000 N   0  0  0  0  0  0  0  0  0  0  0  0
    1.4210   -0.0000    0.0000 C   0  0  0  0  0  0  0  0  0  0  0  0
    0.6759    0.3588    0.0000 N   0  0  0  0  0  0  0  0  0  0  0  0
   -0.7776    1.0267    0.0000 C   0  0  0  0  0  0  0  0  0  0  0  0
   -1.5839    1.2107    0.0000 C   0  0  0  0  0  0  0  0  0  0  0  0
  1  2  1  0  0  0
  2  3  1  0  0  0
  3  4  2  0  0  0
  3  5  1  0  0  0
  5 22  1  0  0  0
  5  6  1  0  0  0
  6  7  1  0  0  0
  7  8  1  0  0  0
  8  9  1  0  0  0
  9 10  1  0  0  0
 10 20  1  0  0  0
 10 11  2  0  0  0
 11 12  1  0  0  0
 12 13  1  0  0  0
 13 17  1  0  0  0
 13 14  2  0  0  0
 14 15  1  0  0  0
 15 16  2  0  0  0
 16 17  1  0  0  0
 12 18  2  0  0  0
 18 19  1  0  0  0
 19 20  2  0  0  0
  9 21  1  0  0  0
 21 22  1  0  0  0
M  END
>  <Entry>
151

>  <title>
13-1806

>  <rigid docking scores>
-16.5739

>  <InChIKey>
AJDCDZWOWWOCES-UHFFFAOYSA-N

$$$$
atoms 18 bonds 20
dotmatics
mol io
 18 20  0  0  0  0  0  0  0  0999 V2000
    3.5366   -1.1303    0.0000 O   0  0  0  0  0  0  0  0  0  0  0  0
    3.9501   -0.4141    0.0000 C   0  0  0  0  0  0  0  0  0  0  0  0
    3.5366    0.3021    0.0000 N   0  0  0  0  0  0  0  0  0  0  0  0
    2.7096    0.3021    0.0000 C   0  0  0  0  0  0  0  0  0  0  0  0
    2.2185   -0.3664    0.0000 N   0  0  0  0  0  0  0  0  0  0  0  0
    1.4317   -0.1120    0.0000 C   0  0  0  0  0  0  0  0  0  0  0  0
    1.4317    0.7162    0.0000 C   0  0  0  0  0  0  0  0  0  0  0  0
    2.2185    0.9706    0.0000 S   0  0  0  0  0  0  0  0  0  0  0  0
    0.7158    1.1303    0.0000 C   0  0  0  0  0  0  0  0  0  0  0  0
    0.0000    0.7162    0.0000 C   0  0  0  0  0  0  0  0  0  0  0  0
    0.0000   -0.1120    0.0000 C   0  0  0  0  0  0  0  0  0  0  0  0
    0.7158   -0.5262    0.0000 C   0  0  0  0  0  0  0  0  0  0  0  0
    4.7771   -0.4141    0.0000 C   0  0  0  0  0  0  0  0  0  0  0  0
    5.1906    0.3021    0.0000 C   0  0  0  0  0  0  0  0  0  0  0  0
    6.0176    0.3021    0.0000 C   0  0  0  0  0  0  0  0  0  0  0  0
    6.4311   -0.4141    0.0000 C   0  0  0  0  0  0  0  0  0  0  0  0
    6.0176   -1.1303    0.0000 N   0  0  0  0  0  0  0  0  0  0  0  0
    5.1906   -1.1303    0.0000 C   0  0  0  0  0  0  0  0  0  0  0  0
  1  2  2  0  0  0
  2  3  1  0  0  0
  3  4  1  0  0  0
  4  8  1  0  0  0
  4  5  2  0  0  0
  5  6  1  0  0  0
  6 12  1  0  0  0
  6  7  2  0  0  0
  7  8  1  0  0  0
  7  9  1  0  0  0
  9 10  1  0  0  0
 10 11  1  0  0  0
 11 12  1  0  0  0
  2 13  1  0  0  0
 13 18  1  0  0  0
 13 14  2  0  0  0
 14 15  1  0  0  0
 15 16  2  0  0  0
 16 17  1  0  0  0
 17 18  2  0  0  0
M  END
>  <Entry>
152

>  <title>
13-1828

>  <rigid docking scores>
-15.6788

>  <InChIKey>
XNKYUUXWRFMNHU-UHFFFAOYSA-N

>  <ChEMBL>
CHEMBL1496831

>  <ZINC>
ZINC000001053819

>  <eMolecules>
2041594

>  <Pubchem>
1245407

>  <Mcule>
MCULE-4413820034

>  <MolPort>
MolPort-001-609-716

$$$$
atoms 22 bonds 24
dotmatics
mol io
 22 24  0  0  0  0  0  0  0  0999 V2000
    8.5989    0.4172    0.0000 C   0  0  0  0  0  0  0  0  0  0  0  0
    7.8823    0.8301    0.0000 O   0  0  0  0  0  0  0  0  0  0  0  0
    7.1665    0.4160    0.0000 C   0  0  0  0  0  0  0  0  0  0  0  0
    7.1672   -0.4110    0.0000 C   0  0  0  0  0  0  0  0  0  0  0  0
    6.4514   -0.8251    0.0000 C   0  0  0  0  0  0  0  0  0  0  0  0
    5.7348   -0.4123    0.0000 C   0  0  0  0  0  0  0  0  0  0  0  0
    5.7341    0.4147    0.0000 C   0  0  0  0  0  0  0  0  0  0  0  0
    5.0175    0.8276    0.0000 C   0  0  0  0  0  0  0  0  0  0  0  0
    4.3017    0.4135    0.0000 C   0  0  0  0  0  0  0  0  0  0  0  0
    4.3024   -0.4135    0.0000 O   0  0  0  0  0  0  0  0  0  0  0  0
    3.5851    0.8264    0.0000 N   0  0  0  0  0  0  0  0  0  0  0  0
    2.8693    0.4123    0.0000 C   0  0  0  0  0  0  0  0  0  0  0  0
    2.8693   -0.4160    0.0000 C   0  0  0  0  0  0  0  0  0  0  0  0
    2.1534   -0.8301    0.0000 C   0  0  0  0  0  0  0  0  0  0  0  0
    1.4317   -0.4160    0.0000 C   0  0  0  0  0  0  0  0  0  0  0  0
    0.7158   -0.8301    0.0000 C   0  0  0  0  0  0  0  0  0  0  0  0
    0.0000   -0.4160    0.0000 C   0  0  0  0  0  0  0  0  0  0  0  0
    0.0000    0.4123    0.0000 C   0  0  0  0  0  0  0  0  0  0  0  0
    0.7158    0.8264    0.0000 C   0  0  0  0  0  0  0  0  0  0  0  0
    1.4317    0.4123    0.0000 C   0  0  0  0  0  0  0  0  0  0  0  0
    2.1534    0.8264    0.0000 C   0  0  0  0  0  0  0  0  0  0  0  0
    6.4499    0.8289    0.0000 C   0  0  0  0  0  0  0  0  0  0  0  0
  1  2  1  0  0  0
  2  3  1  0  0  0
  3 22  1  0  0  0
  3  4  2  0  0  0
  4  5  1  0  0  0
  5  6  2  0  0  0
  6  7  1  0  0  0
  7  8  1  0  0  0
  8  9  1  0  0  0
  9 10  2  0  0  0
  9 11  1  0  0  0
 11 12  1  0  0  0
 12 21  1  0  0  0
 12 13  1  0  0  0
 13 14  1  0  0  0
 14 15  1  0  0  0
 15 20  1  0  0  0
 15 16  2  0  0  0
 16 17  1  0  0  0
 17 18  2  0  0  0
 18 19  1  0  0  0
 19 20  2  0  0  0
 20 21  1  0  0  0
  7 22  2  0  0  0
M  END
>  <Entry>
153

>  <title>
1-1264

>  <rigid docking scores>
-16.3752

>  <InChIKey>
OTWAPQNDHAAVNC-UHFFFAOYSA-N

$$$$
atoms 22 bonds 24
dotmatics
mol io
 22 24  0  0  0  0  0  0  0  0999 V2000
    5.6513    2.3580    0.0000 C   0  0  0  0  0  0  0  0  0  0  0  0
    5.6513    1.5310    0.0000 N   0  0  0  0  0  0  0  0  0  0  0  0
    6.3675    1.1175    0.0000 C   0  0  0  0  0  0  0  0  0  0  0  0
    6.3675    0.2905    0.0000 C   0  0  0  0  0  0  0  0  0  0  0  0
    5.6513   -0.1230    0.0000 N   0  0  0  0  0  0  0  0  0  0  0  0
    5.6513   -0.9500    0.0000 C   0  0  0  0  0  0  0  0  0  0  0  0
    4.9351   -1.3635    0.0000 C   0  0  0  0  0  0  0  0  0  0  0  0
    4.8487   -2.1860    0.0000 C   0  0  0  0  0  0  0  0  0  0  0  0
    4.0397   -2.3580    0.0000 S   0  0  0  0  0  0  0  0  0  0  0  0
    3.6262   -1.6418    0.0000 C   0  0  0  0  0  0  0  0  0  0  0  0
    2.8038   -1.5553    0.0000 N   0  0  0  0  0  0  0  0  0  0  0  0
    2.4674   -0.7998    0.0000 C   0  0  0  0  0  0  0  0  0  0  0  0
    2.9535   -0.1307    0.0000 O   0  0  0  0  0  0  0  0  0  0  0  0
    1.6449   -0.7134    0.0000 C   0  0  0  0  0  0  0  0  0  0  0  0
    1.1588   -1.3824    0.0000 C   0  0  0  0  0  0  0  0  0  0  0  0
    0.3364   -1.2960    0.0000 C   0  0  0  0  0  0  0  0  0  0  0  0
    0.0000   -0.5405    0.0000 N   0  0  0  0  0  0  0  0  0  0  0  0
    0.4861    0.1286    0.0000 C   0  0  0  0  0  0  0  0  0  0  0  0
    1.3086    0.0421    0.0000 C   0  0  0  0  0  0  0  0  0  0  0  0
    4.1796   -1.0272    0.0000 N   0  0  0  0  0  0  0  0  0  0  0  0
    4.9351    0.2905    0.0000 C   0  0  0  0  0  0  0  0  0  0  0  0
    4.9351    1.1175    0.0000 C   0  0  0  0  0  0  0  0  0  0  0  0
  1  2  1  0  0  0
  2 22  1  0  0  0
  2  3  1  0  0  0
  3  4  1  0  0  0
  4  5  1  0  0  0
  5  6  1  0  0  0
  6  7  1  0  0  0
  7 20  1  0  0  0
  7  8  2  0  0  0
  8  9  1  0  0  0
  9 10  1  0  0  0
 10 11  1  0  0  0
 11 12  1  0  0  0
 12 13  2  0  0  0
 12 14  1  0  0  0
 14 19  1  0  0  0
 14 15  2  0  0  0
 15 16  1  0  0  0
 16 17  2  0  0  0
 17 18  1  0  0  0
 18 19  2  0  0  0
 10 20  2  0  0  0
  5 21  1  0  0  0
 21 22  1  0  0  0
M  END
>  <Entry>
154

>  <title>
13-2176

>  <rigid docking scores>
-16.077

>  <InChIKey>
ITQWAEWAUMNIEO-UHFFFAOYSA-N

$$$$
atoms 20 bonds 22
dotmatics
mol io
 20 22  0  0  0  0  0  0  0  0999 V2000
    4.4925    2.3580    0.0000 C   0  0  0  0  0  0  0  0  0  0  0  0
    4.4925    1.5310    0.0000 N   0  0  0  0  0  0  0  0  0  0  0  0
    5.2087    1.1175    0.0000 C   0  0  0  0  0  0  0  0  0  0  0  0
    5.2087    0.2905    0.0000 C   0  0  0  0  0  0  0  0  0  0  0  0
    4.4925   -0.1230    0.0000 N   0  0  0  0  0  0  0  0  0  0  0  0
    4.4925   -0.9500    0.0000 C   0  0  0  0  0  0  0  0  0  0  0  0
    3.7763   -1.3635    0.0000 C   0  0  0  0  0  0  0  0  0  0  0  0
    3.6898   -2.1860    0.0000 C   0  0  0  0  0  0  0  0  0  0  0  0
    2.8809   -2.3580    0.0000 C   0  0  0  0  0  0  0  0  0  0  0  0
    2.4674   -1.6418    0.0000 C   0  0  0  0  0  0  0  0  0  0  0  0
    1.6449   -1.5553    0.0000 C   0  0  0  0  0  0  0  0  0  0  0  0
    1.1588   -2.2244    0.0000 C   0  0  0  0  0  0  0  0  0  0  0  0
    0.3364   -2.1379    0.0000 C   0  0  0  0  0  0  0  0  0  0  0  0
    0.0000   -1.3824    0.0000 C   0  0  0  0  0  0  0  0  0  0  0  0
    0.4861   -0.7134    0.0000 C   0  0  0  0  0  0  0  0  0  0  0  0
    1.3086   -0.7998    0.0000 C   0  0  0  0  0  0  0  0  0  0  0  0
    1.7947   -0.1307    0.0000 F   0  0  0  0  0  0  0  0  0  0  0  0
    3.0208   -1.0272    0.0000 O   0  0  0  0  0  0  0  0  0  0  0  0
    3.7763    0.2905    0.0000 C   0  0  0  0  0  0  0  0  0  0  0  0
    3.7763    1.1175    0.0000 C   0  0  0  0  0  0  0  0  0  0  0  0
  1  2  1  0  0  0
  2 20  1  0  0  0
  2  3  1  0  0  0
  3  4  1  0  0  0
  4  5  1  0  0  0
  5  6  1  0  0  0
  6  7  1  0  0  0
  7 18  1  0  0  0
  7  8  2  0  0  0
  8  9  1  0  0  0
  9 10  2  0  0  0
 10 11  1  0  0  0
 11 16  1  0  0  0
 11 12  2  0  0  0
 12 13  1  0  0  0
 13 14  2  0  0  0
 14 15  1  0  0  0
 15 16  2  0  0  0
 16 17  1  0  0  0
 10 18  1  0  0  0
  5 19  1  0  0  0
 19 20  1  0  0  0
M  END
>  <Entry>
155

>  <title>
13-2178

>  <rigid docking scores>
-15.8244

>  <InChIKey>
IQSXUZQCYPMKAD-UHFFFAOYSA-N

$$$$
atoms 22 bonds 25
dotmatics
mol io
 22 25  0  0  0  0  0  0  0  0999 V2000
   -3.3241    5.0691    0.0000 C   0  0  0  0  0  0  0  0  0  0  0  0
   -2.4971    5.0691    0.0000 N   0  0  0  0  0  0  0  0  0  0  0  0
   -2.0836    5.7853    0.0000 C   0  0  0  0  0  0  0  0  0  0  0  0
   -1.2566    5.7853    0.0000 C   0  0  0  0  0  0  0  0  0  0  0  0
   -0.8431    5.0691    0.0000 N   0  0  0  0  0  0  0  0  0  0  0  0
   -0.0161    5.0691    0.0000 C   0  0  0  0  0  0  0  0  0  0  0  0
    0.3974    4.3529    0.0000 C   0  0  0  0  0  0  0  0  0  0  0  0
    1.2199    4.2664    0.0000 C   0  0  0  0  0  0  0  0  0  0  0  0
    1.3919    3.4575    0.0000 C   0  0  0  0  0  0  0  0  0  0  0  0
    2.0064    2.9041    0.0000 N   0  0  0  0  0  0  0  0  0  0  0  0
    1.6701    2.1486    0.0000 C   0  0  0  0  0  0  0  0  0  0  0  0
    2.0836    1.4324    0.0000 C   0  0  0  0  0  0  0  0  0  0  0  0
    2.9106    1.4324    0.0000 C   0  0  0  0  0  0  0  0  0  0  0  0
    3.3241    0.7162    0.0000 C   0  0  0  0  0  0  0  0  0  0  0  0
    2.9106   -0.0000    0.0000 C   0  0  0  0  0  0  0  0  0  0  0  0
    2.0836   -0.0000    0.0000 N   0  0  0  0  0  0  0  0  0  0  0  0
    1.6701    0.7162    0.0000 C   0  0  0  0  0  0  0  0  0  0  0  0
    0.8476    2.2351    0.0000 N   0  0  0  0  0  0  0  0  0  0  0  0
    0.6756    3.0440    0.0000 C   0  0  0  0  0  0  0  0  0  0  0  0
    0.0611    3.5974    0.0000 S   0  0  0  0  0  0  0  0  0  0  0  0
   -1.2566    4.3529    0.0000 C   0  0  0  0  0  0  0  0  0  0  0  0
   -2.0836    4.3529    0.0000 C   0  0  0  0  0  0  0  0  0  0  0  0
  1  2  1  0  0  0
  2 22  1  0  0  0
  2  3  1  0  0  0
  3  4  1  0  0  0
  4  5  1  0  0  0
  5  6  1  0  0  0
  6  7  1  0  0  0
  7 20  1  0  0  0
  7  8  2  0  0  0
  8  9  1  0  0  0
  9 19  2  0  0  0
  9 10  1  0  0  0
 10 11  2  0  0  0
 11 12  1  0  0  0
 12 17  1  0  0  0
 12 13  2  0  0  0
 13 14  1  0  0  0
 14 15  2  0  0  0
 15 16  1  0  0  0
 16 17  2  0  0  0
 11 18  1  0  0  0
 18 19  1  0  0  0
 19 20  1  0  0  0
  5 21  1  0  0  0
 21 22  1  0  0  0
M  END
>  <Entry>
156

>  <title>
13-2181

>  <rigid docking scores>
-16.5553

>  <InChIKey>
LITCIIMIPXXOMO-UHFFFAOYSA-N

$$$$
atoms 22 bonds 24
dotmatics
mol io
 22 24  0  0  0  0  0  0  0  0999 V2000
   -0.7308    2.9299    0.0000 C   0  0  0  0  0  0  0  0  0  0  0  0
    0.0962    2.9299    0.0000 C   0  0  0  0  0  0  0  0  0  0  0  0
    0.5822    3.5989    0.0000 N   0  0  0  0  0  0  0  0  0  0  0  0
    1.3688    3.3434    0.0000 N   0  0  0  0  0  0  0  0  0  0  0  0
    2.0378    3.8295    0.0000 C   0  0  0  0  0  0  0  0  0  0  0  0
    1.9514    4.6519    0.0000 C   0  0  0  0  0  0  0  0  0  0  0  0
    2.6204    5.1380    0.0000 C   0  0  0  0  0  0  0  0  0  0  0  0
    3.3759    4.8017    0.0000 C   0  0  0  0  0  0  0  0  0  0  0  0
    3.4624    3.9792    0.0000 C   0  0  0  0  0  0  0  0  0  0  0  0
    2.7933    3.4931    0.0000 C   0  0  0  0  0  0  0  0  0  0  0  0
    1.3688    2.5164    0.0000 C   0  0  0  0  0  0  0  0  0  0  0  0
    0.5822    2.2608    0.0000 C   0  0  0  0  0  0  0  0  0  0  0  0
    0.3267    1.4743    0.0000 C   0  0  0  0  0  0  0  0  0  0  0  0
   -0.4822    1.3024    0.0000 N   0  0  0  0  0  0  0  0  0  0  0  0
   -0.7378    0.5158    0.0000 C   0  0  0  0  0  0  0  0  0  0  0  0
   -1.5467    0.3439    0.0000 C   0  0  0  0  0  0  0  0  0  0  0  0
   -2.1001    0.9585    0.0000 C   0  0  0  0  0  0  0  0  0  0  0  0
   -2.9090    0.7865    0.0000 N   0  0  0  0  0  0  0  0  0  0  0  0
   -3.4624    1.4011    0.0000 C   0  0  0  0  0  0  0  0  0  0  0  0
   -3.1646    0.0000    0.0000 C   0  0  0  0  0  0  0  0  0  0  0  0
   -1.8445    1.7450    0.0000 C   0  0  0  0  0  0  0  0  0  0  0  0
   -1.0356    1.9169    0.0000 C   0  0  0  0  0  0  0  0  0  0  0  0
  1  2  1  0  0  0
  2 12  1  0  0  0
  2  3  2  0  0  0
  3  4  1  0  0  0
  4  5  1  0  0  0
  5 10  1  0  0  0
  5  6  2  0  0  0
  6  7  1  0  0  0
  7  8  2  0  0  0
  8  9  1  0  0  0
  9 10  2  0  0  0
  4 11  1  0  0  0
 11 12  2  0  0  0
 12 13  1  0  0  0
 13 14  1  0  0  0
 14 22  1  0  0  0
 14 15  1  0  0  0
 15 16  1  0  0  0
 16 17  1  0  0  0
 17 18  1  0  0  0
 18 19  1  0  0  0
 18 20  1  0  0  0
 17 21  1  0  0  0
 21 22  1  0  0  0
M  END
>  <Entry>
157

>  <title>
13-2299

>  <rigid docking scores>
-15.3787

>  <InChIKey>
NLWOHZDRVWSLQO-UHFFFAOYSA-N

>  <Mcule>
MCULE-5368600341

$$$$
atoms 20 bonds 22
dotmatics
mol io
 20 22  0  0  0  0  0  0  0  0999 V2000
    5.3150    2.3580    0.0000 C   0  0  0  0  0  0  0  0  0  0  0  0
    5.3150    1.5310    0.0000 N   0  0  0  0  0  0  0  0  0  0  0  0
    6.0312    1.1175    0.0000 C   0  0  0  0  0  0  0  0  0  0  0  0
    6.0312    0.2905    0.0000 C   0  0  0  0  0  0  0  0  0  0  0  0
    5.3150   -0.1230    0.0000 N   0  0  0  0  0  0  0  0  0  0  0  0
    5.3150   -0.9500    0.0000 C   0  0  0  0  0  0  0  0  0  0  0  0
    4.5988   -1.3635    0.0000 C   0  0  0  0  0  0  0  0  0  0  0  0
    4.5123   -2.1860    0.0000 C   0  0  0  0  0  0  0  0  0  0  0  0
    3.7034   -2.3580    0.0000 O   0  0  0  0  0  0  0  0  0  0  0  0
    3.2899   -1.6418    0.0000 C   0  0  0  0  0  0  0  0  0  0  0  0
    2.4674   -1.5553    0.0000 C   0  0  0  0  0  0  0  0  0  0  0  0
    1.9813   -2.2244    0.0000 C   0  0  0  0  0  0  0  0  0  0  0  0
    1.1588   -2.1379    0.0000 C   0  0  0  0  0  0  0  0  0  0  0  0
    0.8225   -1.3824    0.0000 C   0  0  0  0  0  0  0  0  0  0  0  0
    0.0000   -1.2960    0.0000 Cl  0  0  0  0  0  0  0  0  0  0  0  0
    1.3086   -0.7134    0.0000 C   0  0  0  0  0  0  0  0  0  0  0  0
    2.1310   -0.7998    0.0000 C   0  0  0  0  0  0  0  0  0  0  0  0
    3.8432   -1.0272    0.0000 N   0  0  0  0  0  0  0  0  0  0  0  0
    4.5988    0.2905    0.0000 C   0  0  0  0  0  0  0  0  0  0  0  0
    4.5988    1.1175    0.0000 C   0  0  0  0  0  0  0  0  0  0  0  0
  1  2  1  0  0  0
  2 20  1  0  0  0
  2  3  1  0  0  0
  3  4  1  0  0  0
  4  5  1  0  0  0
  5  6  1  0  0  0
  6  7  1  0  0  0
  7 18  1  0  0  0
  7  8  2  0  0  0
  8  9  1  0  0  0
  9 10  1  0  0  0
 10 11  1  0  0  0
 11 17  1  0  0  0
 11 12  2  0  0  0
 12 13  1  0  0  0
 13 14  2  0  0  0
 14 15  1  0  0  0
 14 16  1  0  0  0
 16 17  2  0  0  0
 10 18  2  0  0  0
  5 19  1  0  0  0
 19 20  1  0  0  0
M  END
>  <Entry>
158

>  <title>
13-2308

>  <rigid docking scores>
-16.0432

>  <InChIKey>
OIKZWHBCUUHPLS-UHFFFAOYSA-N

$$$$
atoms 21 bonds 23
dotmatics
mol io
 21 23  0  0  0  0  0  0  0  0999 V2000
   -3.0863    3.9132    0.0000 C   0  0  0  0  0  0  0  0  0  0  0  0
   -2.2593    3.9132    0.0000 C   0  0  0  0  0  0  0  0  0  0  0  0
   -1.7732    4.5822    0.0000 N   0  0  0  0  0  0  0  0  0  0  0  0
   -0.9867    4.3267    0.0000 C   0  0  0  0  0  0  0  0  0  0  0  0
   -0.3176    4.8128    0.0000 C   0  0  0  0  0  0  0  0  0  0  0  0
    0.4379    4.4764    0.0000 N   0  0  0  0  0  0  0  0  0  0  0  0
    1.1541    4.8899    0.0000 C   0  0  0  0  0  0  0  0  0  0  0  0
    1.7687    4.3365    0.0000 C   0  0  0  0  0  0  0  0  0  0  0  0
    1.4323    3.5810    0.0000 C   0  0  0  0  0  0  0  0  0  0  0  0
    1.8458    2.8648    0.0000 N   0  0  0  0  0  0  0  0  0  0  0  0
    1.4323    2.1486    0.0000 C   0  0  0  0  0  0  0  0  0  0  0  0
    0.6053    2.1486    0.0000 O   0  0  0  0  0  0  0  0  0  0  0  0
    1.8458    1.4324    0.0000 C   0  0  0  0  0  0  0  0  0  0  0  0
    2.6728    1.4324    0.0000 C   0  0  0  0  0  0  0  0  0  0  0  0
    3.0863    0.7162    0.0000 C   0  0  0  0  0  0  0  0  0  0  0  0
    2.6728   -0.0000    0.0000 C   0  0  0  0  0  0  0  0  0  0  0  0
    1.8458   -0.0000    0.0000 N   0  0  0  0  0  0  0  0  0  0  0  0
    1.4323    0.7162    0.0000 C   0  0  0  0  0  0  0  0  0  0  0  0
    0.6098    3.6675    0.0000 C   0  0  0  0  0  0  0  0  0  0  0  0
   -0.9867    3.4997    0.0000 C   0  0  0  0  0  0  0  0  0  0  0  0
   -1.7732    3.2441    0.0000 S   0  0  0  0  0  0  0  0  0  0  0  0
  1  2  1  0  0  0
  2 21  1  0  0  0
  2  3  2  0  0  0
  3  4  1  0  0  0
  4  5  1  0  0  0
  5  6  1  0  0  0
  6 19  1  0  0  0
  6  7  1  0  0  0
  7  8  1  0  0  0
  8  9  1  0  0  0
  9 10  1  0  0  0
 10 11  1  0  0  0
 11 12  2  0  0  0
 11 13  1  0  0  0
 13 18  1  0  0  0
 13 14  2  0  0  0
 14 15  1  0  0  0
 15 16  2  0  0  0
 16 17  1  0  0  0
 17 18  2  0  0  0
  9 19  1  0  0  0
  4 20  2  0  0  0
 20 21  1  0  0  0
M  END
>  <Entry>
159

>  <title>
13-2311

>  <rigid docking scores>
-15.4746

>  <InChIKey>
TWYNQASGSCLMEC-UHFFFAOYSA-N

$$$$
atoms 20 bonds 22
dotmatics
mol io
 20 22  0  0  0  0  0  0  0  0999 V2000
    0.0000   -2.8957    0.0000 C   0  0  0  0  0  0  0  0  0  0  0  0
    0.7158   -2.4816    0.0000 C   0  0  0  0  0  0  0  0  0  0  0  0
    0.7158   -1.6534    0.0000 N   0  0  0  0  0  0  0  0  0  0  0  0
    1.4317   -1.2393    0.0000 C   0  0  0  0  0  0  0  0  0  0  0  0
    1.4317   -0.4123    0.0000 N   0  0  0  0  0  0  0  0  0  0  0  0
    0.7155    0.0012    0.0000 C   0  0  0  0  0  0  0  0  0  0  0  0
    0.7155    0.8282    0.0000 C   0  0  0  0  0  0  0  0  0  0  0  0
    1.4317    1.2417    0.0000 N   0  0  0  0  0  0  0  0  0  0  0  0
    1.4317    2.0687    0.0000 S   0  0  0  0  0  0  0  0  0  0  0  0
    2.2587    2.0687    0.0000 C   0  0  0  0  0  0  0  0  0  0  0  0
    1.4317    2.8957    0.0000 O   0  0  0  0  0  0  0  0  0  0  0  0
    0.6047    2.0687    0.0000 O   0  0  0  0  0  0  0  0  0  0  0  0
    2.1479    0.8282    0.0000 C   0  0  0  0  0  0  0  0  0  0  0  0
    2.1479    0.0012    0.0000 C   0  0  0  0  0  0  0  0  0  0  0  0
    2.1475   -1.6534    0.0000 C   0  0  0  0  0  0  0  0  0  0  0  0
    2.9344   -1.3990    0.0000 S   0  0  0  0  0  0  0  0  0  0  0  0
    3.4254   -2.0675    0.0000 C   0  0  0  0  0  0  0  0  0  0  0  0
    2.9344   -2.7360    0.0000 C   0  0  0  0  0  0  0  0  0  0  0  0
    2.1475   -2.4816    0.0000 C   0  0  0  0  0  0  0  0  0  0  0  0
    1.4317   -2.8957    0.0000 N   0  0  0  0  0  0  0  0  0  0  0  0
  1  2  1  0  0  0
  2 20  1  0  0  0
  2  3  2  0  0  0
  3  4  1  0  0  0
  4  5  1  0  0  0
  5 14  1  0  0  0
  5  6  1  0  0  0
  6  7  1  0  0  0
  7  8  1  0  0  0
  8  9  1  0  0  0
  9 10  1  0  0  0
  9 11  2  0  0  0
  9 12  2  0  0  0
  8 13  1  0  0  0
 13 14  1  0  0  0
  4 15  2  0  0  0
 15 19  1  0  0  0
 15 16  1  0  0  0
 16 17  1  0  0  0
 17 18  2  0  0  0
 18 19  1  0  0  0
 19 20  2  0  0  0
M  END
>  <Entry>
160

>  <title>
13-2379

>  <rigid docking scores>
-17.9736

>  <InChIKey>
AOEZDLUTSLDJJS-UHFFFAOYSA-N

$$$$
atoms 21 bonds 24
dotmatics
mol io
 21 24  0  0  0  0  0  0  0  0999 V2000
    1.3092    2.7721    0.0000 C   0  0  0  0  0  0  0  0  0  0  0  0
    1.3092    1.9438    0.0000 N   0  0  0  0  0  0  0  0  0  0  0  0
    2.0251    1.5297    0.0000 C   0  0  0  0  0  0  0  0  0  0  0  0
    2.0251    0.7027    0.0000 N   0  0  0  0  0  0  0  0  0  0  0  0
    2.7413    0.2892    0.0000 C   0  0  0  0  0  0  0  0  0  0  0  0
    2.7413   -0.5378    0.0000 C   0  0  0  0  0  0  0  0  0  0  0  0
    2.0251   -0.9513    0.0000 C   0  0  0  0  0  0  0  0  0  0  0  0
    2.0251   -1.7783    0.0000 C   0  0  0  0  0  0  0  0  0  0  0  0
    1.3089   -2.1918    0.0000 C   0  0  0  0  0  0  0  0  0  0  0  0
    1.2224   -3.0143    0.0000 C   0  0  0  0  0  0  0  0  0  0  0  0
    0.4135   -3.1862    0.0000 N   0  0  0  0  0  0  0  0  0  0  0  0
    0.0000   -2.4700    0.0000 C   0  0  0  0  0  0  0  0  0  0  0  0
    0.5534   -1.8554    0.0000 N   0  0  0  0  0  0  0  0  0  0  0  0
    1.3089   -0.5378    0.0000 C   0  0  0  0  0  0  0  0  0  0  0  0
    1.3089    0.2892    0.0000 C   0  0  0  0  0  0  0  0  0  0  0  0
    2.7409    1.9438    0.0000 C   0  0  0  0  0  0  0  0  0  0  0  0
    3.5278    1.6894    0.0000 C   0  0  0  0  0  0  0  0  0  0  0  0
    4.0188    2.3580    0.0000 C   0  0  0  0  0  0  0  0  0  0  0  0
    3.5278    3.0265    0.0000 S   0  0  0  0  0  0  0  0  0  0  0  0
    2.7409    2.7721    0.0000 C   0  0  0  0  0  0  0  0  0  0  0  0
    2.0251    3.1862    0.0000 N   0  0  0  0  0  0  0  0  0  0  0  0
  1 21  1  0  0  0
  1  2  2  0  0  0
  2  3  1  0  0  0
  3  4  1  0  0  0
  4 15  1  0  0  0
  4  5  1  0  0  0
  5  6  1  0  0  0
  6  7  1  0  0  0
  7  8  1  0  0  0
  8  9  1  0  0  0
  9 13  1  0  0  0
  9 10  2  0  0  0
 10 11  1  0  0  0
 11 12  1  0  0  0
 12 13  2  0  0  0
  7 14  1  0  0  0
 14 15  1  0  0  0
  3 16  2  0  0  0
 16 20  1  0  0  0
 16 17  1  0  0  0
 17 18  2  0  0  0
 18 19  1  0  0  0
 19 20  1  0  0  0
 20 21  2  0  0  0
M  END
>  <Entry>
161

>  <title>
13-2443

>  <rigid docking scores>
-21.887

>  <InChIKey>
JAVYETCFCJXUOY-UHFFFAOYSA-N

$$$$
atoms 20 bonds 22
dotmatics
mol io
 20 22  0  0  0  0  0  0  0  0999 V2000
    5.3817    1.0129    0.0000 O   0  0  0  0  0  0  0  0  0  0  0  0
    4.9682    0.2967    0.0000 C   0  0  0  0  0  0  0  0  0  0  0  0
    5.3817   -0.4195    0.0000 C   0  0  0  0  0  0  0  0  0  0  0  0
    6.2042   -0.5060    0.0000 C   0  0  0  0  0  0  0  0  0  0  0  0
    6.3762   -1.3149    0.0000 N   0  0  0  0  0  0  0  0  0  0  0  0
    5.6599   -1.7284    0.0000 N   0  0  0  0  0  0  0  0  0  0  0  0
    5.0454   -1.1750    0.0000 N   0  0  0  0  0  0  0  0  0  0  0  0
    4.1412    0.2967    0.0000 N   0  0  0  0  0  0  0  0  0  0  0  0
    3.7271   -0.4191    0.0000 C   0  0  0  0  0  0  0  0  0  0  0  0
    2.8989   -0.4191    0.0000 C   0  0  0  0  0  0  0  0  0  0  0  0
    2.4847    0.2967    0.0000 N   0  0  0  0  0  0  0  0  0  0  0  0
    1.6565    0.2967    0.0000 C   0  0  0  0  0  0  0  0  0  0  0  0
    1.2424   -0.4191    0.0000 C   0  0  0  0  0  0  0  0  0  0  0  0
    0.4141   -0.4191    0.0000 C   0  0  0  0  0  0  0  0  0  0  0  0
    0.0000    0.2967    0.0000 C   0  0  0  0  0  0  0  0  0  0  0  0
    0.4141    1.0125    0.0000 C   0  0  0  0  0  0  0  0  0  0  0  0
    0.0000    1.7284    0.0000 Cl  0  0  0  0  0  0  0  0  0  0  0  0
    1.2424    1.0125    0.0000 C   0  0  0  0  0  0  0  0  0  0  0  0
    2.8989    1.0125    0.0000 C   0  0  0  0  0  0  0  0  0  0  0  0
    3.7271    1.0125    0.0000 C   0  0  0  0  0  0  0  0  0  0  0  0
  1  2  2  0  0  0
  2  3  1  0  0  0
  3  7  1  0  0  0
  3  4  2  0  0  0
  4  5  1  0  0  0
  5  6  1  0  0  0
  6  7  2  0  0  0
  2  8  1  0  0  0
  8 20  1  0  0  0
  8  9  1  0  0  0
  9 10  1  0  0  0
 10 11  1  0  0  0
 11 12  1  0  0  0
 12 18  1  0  0  0
 12 13  2  0  0  0
 13 14  1  0  0  0
 14 15  2  0  0  0
 15 16  1  0  0  0
 16 17  1  0  0  0
 16 18  2  0  0  0
 11 19  1  0  0  0
 19 20  1  0  0  0
M  END
>  <Entry>
162

>  <title>
13-2504

>  <rigid docking scores>
-15.8259

>  <InChIKey>
GVDAJQMWIFGXIB-UHFFFAOYSA-N

>  <Pubchem>
47262418

>  <Mcule>
MCULE-6005443506

$$$$
atoms 21 bonds 23
dotmatics
mol io
 21 23  0  0  0  0  0  0  0  0999 V2000
   -3.4471    2.5916    0.0000 C   0  0  0  0  0  0  0  0  0  0  0  0
   -2.6201    2.5916    0.0000 C   0  0  0  0  0  0  0  0  0  0  0  0
   -2.1340    3.2607    0.0000 C   0  0  0  0  0  0  0  0  0  0  0  0
   -1.3475    3.0051    0.0000 C   0  0  0  0  0  0  0  0  0  0  0  0
   -0.6784    3.4912    0.0000 C   0  0  0  0  0  0  0  0  0  0  0  0
   -0.7649    4.3137    0.0000 O   0  0  0  0  0  0  0  0  0  0  0  0
    0.0771    3.1549    0.0000 N   0  0  0  0  0  0  0  0  0  0  0  0
    0.7079    3.6896    0.0000 C   0  0  0  0  0  0  0  0  0  0  0  0
    1.5193    3.5298    0.0000 C   0  0  0  0  0  0  0  0  0  0  0  0
    1.9003    2.7957    0.0000 C   0  0  0  0  0  0  0  0  0  0  0  0
    1.5639    2.0402    0.0000 N   0  0  0  0  0  0  0  0  0  0  0  0
    2.0987    1.4094    0.0000 C   0  0  0  0  0  0  0  0  0  0  0  0
    2.9124    1.5571    0.0000 C   0  0  0  0  0  0  0  0  0  0  0  0
    3.4471    0.9262    0.0000 N   0  0  0  0  0  0  0  0  0  0  0  0
    3.1681    0.1477    0.0000 C   0  0  0  0  0  0  0  0  0  0  0  0
    2.3544   -0.0000    0.0000 C   0  0  0  0  0  0  0  0  0  0  0  0
    1.8197    0.6309    0.0000 N   0  0  0  0  0  0  0  0  0  0  0  0
    0.7635    1.8322    0.0000 C   0  0  0  0  0  0  0  0  0  0  0  0
    0.1018    2.3282    0.0000 C   0  0  0  0  0  0  0  0  0  0  0  0
   -1.3475    2.1781    0.0000 S   0  0  0  0  0  0  0  0  0  0  0  0
   -2.1340    1.9226    0.0000 N   0  0  0  0  0  0  0  0  0  0  0  0
  1  2  1  0  0  0
  2 21  2  0  0  0
  2  3  1  0  0  0
  3  4  2  0  0  0
  4  5  1  0  0  0
  5  6  2  0  0  0
  5  7  1  0  0  0
  7 19  1  0  0  0
  7  8  1  0  0  0
  8  9  1  0  0  0
  9 10  1  0  0  0
 10 11  1  0  0  0
 11 12  1  0  0  0
 12 17  1  0  0  0
 12 13  2  0  0  0
 13 14  1  0  0  0
 14 15  2  0  0  0
 15 16  1  0  0  0
 16 17  2  0  0  0
 11 18  1  0  0  0
 18 19  1  0  0  0
  4 20  1  0  0  0
 20 21  1  0  0  0
M  END
>  <Entry>
163

>  <title>
13-2530

>  <rigid docking scores>
-15.3179

>  <InChIKey>
KNWHCKWNQWMQGH-UHFFFAOYSA-N

$$$$
atoms 20 bonds 22
dotmatics
mol io
 20 22  0  0  0  0  0  0  0  0999 V2000
    6.6229   -1.7901    0.0000 O   0  0  0  0  0  0  0  0  0  0  0  0
    6.2094   -1.0739    0.0000 C   0  0  0  0  0  0  0  0  0  0  0  0
    5.3824   -1.0739    0.0000 C   0  0  0  0  0  0  0  0  0  0  0  0
    4.9682   -1.7898    0.0000 C   0  0  0  0  0  0  0  0  0  0  0  0
    4.1400   -1.7898    0.0000 C   0  0  0  0  0  0  0  0  0  0  0  0
    3.7259   -1.0739    0.0000 N   0  0  0  0  0  0  0  0  0  0  0  0
    2.8976   -1.0739    0.0000 C   0  0  0  0  0  0  0  0  0  0  0  0
    2.4835   -1.7898    0.0000 C   0  0  0  0  0  0  0  0  0  0  0  0
    1.6552   -1.7898    0.0000 C   0  0  0  0  0  0  0  0  0  0  0  0
    1.2411   -1.0739    0.0000 N   0  0  0  0  0  0  0  0  0  0  0  0
    1.6552   -0.3581    0.0000 C   0  0  0  0  0  0  0  0  0  0  0  0
    1.2411    0.3577    0.0000 C   0  0  0  0  0  0  0  0  0  0  0  0
    0.4141    0.3570    0.0000 C   0  0  0  0  0  0  0  0  0  0  0  0
    0.0000    1.0729    0.0000 C   0  0  0  0  0  0  0  0  0  0  0  0
    0.4129    1.7894    0.0000 C   0  0  0  0  0  0  0  0  0  0  0  0
    1.2399    1.7901    0.0000 N   0  0  0  0  0  0  0  0  0  0  0  0
    1.6540    1.0743    0.0000 C   0  0  0  0  0  0  0  0  0  0  0  0
    2.4835   -0.3581    0.0000 N   0  0  0  0  0  0  0  0  0  0  0  0
    4.1400   -0.3581    0.0000 C   0  0  0  0  0  0  0  0  0  0  0  0
    4.9682   -0.3581    0.0000 C   0  0  0  0  0  0  0  0  0  0  0  0
  1  2  1  0  0  0
  2  3  1  0  0  0
  3 20  1  0  0  0
  3  4  1  0  0  0
  4  5  1  0  0  0
  5  6  1  0  0  0
  6  7  1  0  0  0
  7 18  1  0  0  0
  7  8  2  0  0  0
  8  9  1  0  0  0
  9 10  2  0  0  0
 10 11  1  0  0  0
 11 12  1  0  0  0
 12 17  1  0  0  0
 12 13  2  0  0  0
 13 14  1  0  0  0
 14 15  2  0  0  0
 15 16  1  0  0  0
 16 17  2  0  0  0
 11 18  2  0  0  0
  6 19  1  0  0  0
 19 20  1  0  0  0
M  END
>  <Entry>
164

>  <title>
13-2549

>  <rigid docking scores>
-16.6788

>  <InChIKey>
WWIFODLTKVSNFC-UHFFFAOYSA-N

$$$$
atoms 21 bonds 24
dotmatics
mol io
 21 24  0  0  0  0  0  0  0  0999 V2000
    0.0000    0.9631    0.0000 C   0  0  0  0  0  0  0  0  0  0  0  0
    0.4129    1.6797    0.0000 C   0  0  0  0  0  0  0  0  0  0  0  0
    1.2220    1.5085    0.0000 O   0  0  0  0  0  0  0  0  0  0  0  0
    1.3091    0.6861    0.0000 C   0  0  0  0  0  0  0  0  0  0  0  0
    2.0257    0.2732    0.0000 C   0  0  0  0  0  0  0  0  0  0  0  0
    2.7415    0.6873    0.0000 N   0  0  0  0  0  0  0  0  0  0  0  0
    2.7415    1.5156    0.0000 C   0  0  0  0  0  0  0  0  0  0  0  0
    3.4574    1.9297    0.0000 C   0  0  0  0  0  0  0  0  0  0  0  0
    4.1732    1.5156    0.0000 C   0  0  0  0  0  0  0  0  0  0  0  0
    4.9600    1.7700    0.0000 N   0  0  0  0  0  0  0  0  0  0  0  0
    5.4511    1.1014    0.0000 N   0  0  0  0  0  0  0  0  0  0  0  0
    4.9600    0.4329    0.0000 C   0  0  0  0  0  0  0  0  0  0  0  0
    5.2125   -0.3546    0.0000 C   0  0  0  0  0  0  0  0  0  0  0  0
    6.0207   -0.5298    0.0000 C   0  0  0  0  0  0  0  0  0  0  0  0
    6.2731   -1.3173    0.0000 C   0  0  0  0  0  0  0  0  0  0  0  0
    5.7173   -1.9297    0.0000 N   0  0  0  0  0  0  0  0  0  0  0  0
    4.9091   -1.7545    0.0000 C   0  0  0  0  0  0  0  0  0  0  0  0
    4.6566   -0.9670    0.0000 C   0  0  0  0  0  0  0  0  0  0  0  0
    4.1732    0.6873    0.0000 C   0  0  0  0  0  0  0  0  0  0  0  0
    3.4574    0.2732    0.0000 C   0  0  0  0  0  0  0  0  0  0  0  0
    0.5539    0.3490    0.0000 C   0  0  0  0  0  0  0  0  0  0  0  0
  1 21  1  0  0  0
  1  2  2  0  0  0
  2  3  1  0  0  0
  3  4  1  0  0  0
  4  5  1  0  0  0
  5  6  1  0  0  0
  6 20  1  0  0  0
  6  7  1  0  0  0
  7  8  1  0  0  0
  8  9  1  0  0  0
  9 19  2  0  0  0
  9 10  1  0  0  0
 10 11  1  0  0  0
 11 12  2  0  0  0
 12 13  1  0  0  0
 13 18  1  0  0  0
 13 14  2  0  0  0
 14 15  1  0  0  0
 15 16  2  0  0  0
 16 17  1  0  0  0
 17 18  2  0  0  0
 12 19  1  0  0  0
 19 20  1  0  0  0
  4 21  2  0  0  0
M  END
>  <Entry>
165

>  <title>
13-2802

>  <rigid docking scores>
-16.9402

>  <InChIKey>
SMLNNNKJXDGKDF-UHFFFAOYSA-N

$$$$
atoms 22 bonds 24
dotmatics
mol io
 22 24  0  0  0  0  0  0  0  0999 V2000
    0.2068    2.1486    0.0000 O   0  0  0  0  0  0  0  0  0  0  0  0
   -0.2068    1.4324    0.0000 C   0  0  0  0  0  0  0  0  0  0  0  0
    0.2068    0.7162    0.0000 N   0  0  0  0  0  0  0  0  0  0  0  0
    1.0338    0.7162    0.0000 C   0  0  0  0  0  0  0  0  0  0  0  0
    1.4473    1.4324    0.0000 C   0  0  0  0  0  0  0  0  0  0  0  0
    2.2743    1.4324    0.0000 C   0  0  0  0  0  0  0  0  0  0  0  0
    2.6878    0.7162    0.0000 C   0  0  0  0  0  0  0  0  0  0  0  0
    2.2743   -0.0000    0.0000 N   0  0  0  0  0  0  0  0  0  0  0  0
    1.4473   -0.0000    0.0000 C   0  0  0  0  0  0  0  0  0  0  0  0
   -1.0338    1.4324    0.0000 C   0  0  0  0  0  0  0  0  0  0  0  0
   -1.4473    0.7162    0.0000 C   0  0  0  0  0  0  0  0  0  0  0  0
   -2.2743    0.7162    0.0000 C   0  0  0  0  0  0  0  0  0  0  0  0
   -2.6878    1.4324    0.0000 N   0  0  0  0  0  0  0  0  0  0  0  0
   -2.2743    2.1486    0.0000 C   0  0  0  0  0  0  0  0  0  0  0  0
   -2.6878    2.8648    0.0000 N   0  0  0  0  0  0  0  0  0  0  0  0
   -2.2743    3.5810    0.0000 C   0  0  0  0  0  0  0  0  0  0  0  0
   -2.6878    4.2972    0.0000 C   0  0  0  0  0  0  0  0  0  0  0  0
   -2.2743    5.0134    0.0000 C   0  0  0  0  0  0  0  0  0  0  0  0
   -1.4473    5.0134    0.0000 C   0  0  0  0  0  0  0  0  0  0  0  0
   -1.0338    4.2972    0.0000 C   0  0  0  0  0  0  0  0  0  0  0  0
   -1.4473    3.5810    0.0000 C   0  0  0  0  0  0  0  0  0  0  0  0
   -1.4473    2.1486    0.0000 C   0  0  0  0  0  0  0  0  0  0  0  0
  1  2  2  0  0  0
  2  3  1  0  0  0
  3  4  1  0  0  0
  4  9  1  0  0  0
  4  5  2  0  0  0
  5  6  1  0  0  0
  6  7  2  0  0  0
  7  8  1  0  0  0
  8  9  2  0  0  0
  2 10  1  0  0  0
 10 22  1  0  0  0
 10 11  2  0  0  0
 11 12  1  0  0  0
 12 13  2  0  0  0
 13 14  1  0  0  0
 14 15  1  0  0  0
 15 16  1  0  0  0
 16 21  1  0  0  0
 16 17  1  0  0  0
 17 18  1  0  0  0
 18 19  1  0  0  0
 19 20  1  0  0  0
 20 21  1  0  0  0
 14 22  2  0  0  0
M  END
>  <Entry>
166

>  <title>
13-3381

>  <rigid docking scores>
-15.8654

>  <InChIKey>
YTYHGKCMCLZNNO-UHFFFAOYSA-N

$$$$
atoms 23 bonds 24
dotmatics
mol io
 23 24  0  0  0  0  0  0  0  0999 V2000
    5.0134    2.4810    0.0000 C   0  0  0  0  0  0  0  0  0  0  0  0
    5.0134    1.6540    0.0000 C   0  0  0  0  0  0  0  0  0  0  0  0
    5.7296    1.2405    0.0000 O   0  0  0  0  0  0  0  0  0  0  0  0
    4.2972    1.2405    0.0000 N   0  0  0  0  0  0  0  0  0  0  0  0
    4.2972    0.4135    0.0000 C   0  0  0  0  0  0  0  0  0  0  0  0
    5.0134    0.0000    0.0000 C   0  0  0  0  0  0  0  0  0  0  0  0
    5.0134   -0.8270    0.0000 C   0  0  0  0  0  0  0  0  0  0  0  0
    5.7296   -1.2405    0.0000 C   0  0  0  0  0  0  0  0  0  0  0  0
    5.7296   -2.0675    0.0000 N   0  0  0  0  0  0  0  0  0  0  0  0
    6.4458   -2.4810    0.0000 C   0  0  0  0  0  0  0  0  0  0  0  0
    5.0134   -2.4810    0.0000 C   0  0  0  0  0  0  0  0  0  0  0  0
    4.2972   -1.2405    0.0000 C   0  0  0  0  0  0  0  0  0  0  0  0
    3.5810   -0.8270    0.0000 C   0  0  0  0  0  0  0  0  0  0  0  0
    2.8648   -1.2405    0.0000 N   0  0  0  0  0  0  0  0  0  0  0  0
    2.1486   -0.8270    0.0000 C   0  0  0  0  0  0  0  0  0  0  0  0
    2.1486    0.0000    0.0000 O   0  0  0  0  0  0  0  0  0  0  0  0
    1.4324   -1.2405    0.0000 C   0  0  0  0  0  0  0  0  0  0  0  0
    1.4324   -2.0675    0.0000 C   0  0  0  0  0  0  0  0  0  0  0  0
    0.7162   -2.4810    0.0000 C   0  0  0  0  0  0  0  0  0  0  0  0
    0.0000   -2.0675    0.0000 C   0  0  0  0  0  0  0  0  0  0  0  0
    0.0000   -1.2405    0.0000 N   0  0  0  0  0  0  0  0  0  0  0  0
    0.7162   -0.8270    0.0000 C   0  0  0  0  0  0  0  0  0  0  0  0
    3.5810    0.0000    0.0000 C   0  0  0  0  0  0  0  0  0  0  0  0
  1  2  1  0  0  0
  2  3  2  0  0  0
  2  4  1  0  0  0
  4  5  1  0  0  0
  5 23  1  0  0  0
  5  6  2  0  0  0
  6  7  1  0  0  0
  7  8  1  0  0  0
  8  9  1  0  0  0
  9 10  1  0  0  0
  9 11  1  0  0  0
  7 12  2  0  0  0
 12 13  1  0  0  0
 13 14  1  0  0  0
 14 15  1  0  0  0
 15 16  2  0  0  0
 15 17  1  0  0  0
 17 22  1  0  0  0
 17 18  2  0  0  0
 18 19  1  0  0  0
 19 20  2  0  0  0
 20 21  1  0  0  0
 21 22  2  0  0  0
 13 23  2  0  0  0
M  END
>  <Entry>
167

>  <title>
13-3669

>  <rigid docking scores>
-16.6024

>  <InChIKey>
FSEMJAQVLCVYIU-UHFFFAOYSA-N

$$$$
atoms 20 bonds 22
dotmatics
mol io
 20 22  0  0  0  0  0  0  0  0999 V2000
    1.0629    2.1486    0.0000 O   0  0  0  0  0  0  0  0  0  0  0  0
    0.6494    1.4324    0.0000 C   0  0  0  0  0  0  0  0  0  0  0  0
    1.0629    0.7162    0.0000 N   0  0  0  0  0  0  0  0  0  0  0  0
    1.8899    0.7162    0.0000 C   0  0  0  0  0  0  0  0  0  0  0  0
    2.3034    1.4324    0.0000 C   0  0  0  0  0  0  0  0  0  0  0  0
    3.1304    1.4324    0.0000 C   0  0  0  0  0  0  0  0  0  0  0  0
    3.5439    0.7162    0.0000 C   0  0  0  0  0  0  0  0  0  0  0  0
    3.1304   -0.0000    0.0000 N   0  0  0  0  0  0  0  0  0  0  0  0
    2.3034   -0.0000    0.0000 C   0  0  0  0  0  0  0  0  0  0  0  0
   -0.1776    1.4324    0.0000 C   0  0  0  0  0  0  0  0  0  0  0  0
   -0.6637    0.7633    0.0000 C   0  0  0  0  0  0  0  0  0  0  0  0
   -1.4503    1.0189    0.0000 S   0  0  0  0  0  0  0  0  0  0  0  0
   -1.4503    1.8459    0.0000 C   0  0  0  0  0  0  0  0  0  0  0  0
   -2.1193    2.3320    0.0000 C   0  0  0  0  0  0  0  0  0  0  0  0
   -2.8748    1.9956    0.0000 C   0  0  0  0  0  0  0  0  0  0  0  0
   -3.5439    2.4817    0.0000 C   0  0  0  0  0  0  0  0  0  0  0  0
   -3.4574    3.3042    0.0000 C   0  0  0  0  0  0  0  0  0  0  0  0
   -2.7019    3.6406    0.0000 C   0  0  0  0  0  0  0  0  0  0  0  0
   -2.0329    3.1545    0.0000 N   0  0  0  0  0  0  0  0  0  0  0  0
   -0.6637    2.1015    0.0000 N   0  0  0  0  0  0  0  0  0  0  0  0
  1  2  2  0  0  0
  2  3  1  0  0  0
  3  4  1  0  0  0
  4  9  1  0  0  0
  4  5  2  0  0  0
  5  6  1  0  0  0
  6  7  2  0  0  0
  7  8  1  0  0  0
  8  9  2  0  0  0
  2 10  1  0  0  0
 10 20  1  0  0  0
 10 11  2  0  0  0
 11 12  1  0  0  0
 12 13  1  0  0  0
 13 14  1  0  0  0
 14 19  1  0  0  0
 14 15  2  0  0  0
 15 16  1  0  0  0
 16 17  2  0  0  0
 17 18  1  0  0  0
 18 19  2  0  0  0
 13 20  2  0  0  0
M  END
>  <Entry>
168

>  <title>
13-3670

>  <rigid docking scores>
-19.4115

>  <InChIKey>
JQGXHNAMKNQWMC-UHFFFAOYSA-N

>  <Mcule>
MCULE-1795951452

$$$$
atoms 25 bonds 27
dotmatics
mol io
 25 27  0  0  0  0  0  0  0  0999 V2000
   -3.3080    5.0134    0.0000 N   0  0  0  0  0  0  0  0  0  0  0  0
   -2.8945    4.2972    0.0000 C   0  0  0  0  0  0  0  0  0  0  0  0
   -3.3080    3.5810    0.0000 O   0  0  0  0  0  0  0  0  0  0  0  0
   -2.0675    4.2972    0.0000 C   0  0  0  0  0  0  0  0  0  0  0  0
   -1.6540    5.0134    0.0000 C   0  0  0  0  0  0  0  0  0  0  0  0
   -0.8270    5.0134    0.0000 C   0  0  0  0  0  0  0  0  0  0  0  0
   -0.4135    4.2972    0.0000 C   0  0  0  0  0  0  0  0  0  0  0  0
    0.4135    4.2972    0.0000 N   0  0  0  0  0  0  0  0  0  0  0  0
    0.8270    3.5810    0.0000 C   0  0  0  0  0  0  0  0  0  0  0  0
    0.4135    2.8648    0.0000 O   0  0  0  0  0  0  0  0  0  0  0  0
    1.6540    3.5810    0.0000 C   0  0  0  0  0  0  0  0  0  0  0  0
    2.0675    4.2972    0.0000 C   0  0  0  0  0  0  0  0  0  0  0  0
    2.8945    4.2972    0.0000 C   0  0  0  0  0  0  0  0  0  0  0  0
    3.3080    3.5810    0.0000 C   0  0  0  0  0  0  0  0  0  0  0  0
    2.8945    2.8648    0.0000 N   0  0  0  0  0  0  0  0  0  0  0  0
    3.3080    2.1486    0.0000 C   0  0  0  0  0  0  0  0  0  0  0  0
    2.8945    1.4324    0.0000 C   0  0  0  0  0  0  0  0  0  0  0  0
    3.3080    0.7162    0.0000 C   0  0  0  0  0  0  0  0  0  0  0  0
    2.8945   -0.0000    0.0000 C   0  0  0  0  0  0  0  0  0  0  0  0
    2.0675   -0.0000    0.0000 N   0  0  0  0  0  0  0  0  0  0  0  0
    1.6540    0.7162    0.0000 C   0  0  0  0  0  0  0  0  0  0  0  0
    2.0675    1.4324    0.0000 C   0  0  0  0  0  0  0  0  0  0  0  0
    2.0675    2.8648    0.0000 C   0  0  0  0  0  0  0  0  0  0  0  0
   -0.8270    3.5810    0.0000 C   0  0  0  0  0  0  0  0  0  0  0  0
   -1.6540    3.5810    0.0000 C   0  0  0  0  0  0  0  0  0  0  0  0
  1  2  1  0  0  0
  2  3  2  0  0  0
  2  4  1  0  0  0
  4 25  1  0  0  0
  4  5  2  0  0  0
  5  6  1  0  0  0
  6  7  2  0  0  0
  7  8  1  0  0  0
  8  9  1  0  0  0
  9 10  2  0  0  0
  9 11  1  0  0  0
 11 23  1  0  0  0
 11 12  1  0  0  0
 12 13  1  0  0  0
 13 14  1  0  0  0
 14 15  1  0  0  0
 15 16  1  0  0  0
 16 17  1  0  0  0
 17 22  1  0  0  0
 17 18  2  0  0  0
 18 19  1  0  0  0
 19 20  2  0  0  0
 20 21  1  0  0  0
 21 22  2  0  0  0
 15 23  1  0  0  0
  7 24  1  0  0  0
 24 25  2  0  0  0
M  END
>  <Entry>
169

>  <title>
13-3882

>  <rigid docking scores>
-17.9363

>  <InChIKey>
LIGBPFSTLHUOLZ-UHFFFAOYSA-N

$$$$
atoms 20 bonds 22
dotmatics
mol io
 20 22  0  0  0  0  0  0  0  0999 V2000
    7.4492    0.3583    0.0000 C   0  0  0  0  0  0  0  0  0  0  0  0
    7.8627   -0.3579    0.0000 C   0  0  0  0  0  0  0  0  0  0  0  0
    7.4492   -1.0741    0.0000 N   0  0  0  0  0  0  0  0  0  0  0  0
    6.6222   -1.0741    0.0000 C   0  0  0  0  0  0  0  0  0  0  0  0
    6.2087   -0.3579    0.0000 C   0  0  0  0  0  0  0  0  0  0  0  0
    5.3817   -0.3579    0.0000 O   0  0  0  0  0  0  0  0  0  0  0  0
    4.9682    0.3583    0.0000 C   0  0  0  0  0  0  0  0  0  0  0  0
    4.1412    0.3583    0.0000 C   0  0  0  0  0  0  0  0  0  0  0  0
    3.7271   -0.3576    0.0000 C   0  0  0  0  0  0  0  0  0  0  0  0
    2.8989   -0.3576    0.0000 C   0  0  0  0  0  0  0  0  0  0  0  0
    2.4847    0.3583    0.0000 N   0  0  0  0  0  0  0  0  0  0  0  0
    1.6565    0.3583    0.0000 C   0  0  0  0  0  0  0  0  0  0  0  0
    1.2424   -0.3576    0.0000 C   0  0  0  0  0  0  0  0  0  0  0  0
    0.4141   -0.3576    0.0000 N   0  0  0  0  0  0  0  0  0  0  0  0
    0.0000    0.3583    0.0000 C   0  0  0  0  0  0  0  0  0  0  0  0
    0.4141    1.0741    0.0000 C   0  0  0  0  0  0  0  0  0  0  0  0
    1.2424    1.0741    0.0000 N   0  0  0  0  0  0  0  0  0  0  0  0
    2.8989    1.0741    0.0000 C   0  0  0  0  0  0  0  0  0  0  0  0
    3.7271    1.0741    0.0000 C   0  0  0  0  0  0  0  0  0  0  0  0
    6.6222    0.3583    0.0000 C   0  0  0  0  0  0  0  0  0  0  0  0
  1 20  1  0  0  0
  1  2  2  0  0  0
  2  3  1  0  0  0
  3  4  2  0  0  0
  4  5  1  0  0  0
  5  6  1  0  0  0
  6  7  1  0  0  0
  7  8  1  0  0  0
  8 19  1  0  0  0
  8  9  1  0  0  0
  9 10  1  0  0  0
 10 11  1  0  0  0
 11 12  1  0  0  0
 12 17  1  0  0  0
 12 13  2  0  0  0
 13 14  1  0  0  0
 14 15  2  0  0  0
 15 16  1  0  0  0
 16 17  2  0  0  0
 11 18  1  0  0  0
 18 19  1  0  0  0
  5 20  2  0  0  0
M  END
>  <Entry>
170

>  <title>
13-3991

>  <rigid docking scores>
-15.567

>  <InChIKey>
KXKSLXHSYJWEPG-UHFFFAOYSA-N

$$$$
atoms 19 bonds 20
dotmatics
mol io
 19 20  0  0  0  0  0  0  0  0999 V2000
    4.8341    2.2349    0.0000 C   0  0  0  0  0  0  0  0  0  0  0  0
    5.2476    1.5187    0.0000 S   0  0  0  0  0  0  0  0  0  0  0  0
    5.9638    1.9322    0.0000 O   0  0  0  0  0  0  0  0  0  0  0  0
    5.6611    0.8025    0.0000 O   0  0  0  0  0  0  0  0  0  0  0  0
    4.5314    1.1052    0.0000 C   0  0  0  0  0  0  0  0  0  0  0  0
    4.5314    0.2782    0.0000 C   0  0  0  0  0  0  0  0  0  0  0  0
    3.8152   -0.1353    0.0000 C   0  0  0  0  0  0  0  0  0  0  0  0
    3.8152   -0.9623    0.0000 N   0  0  0  0  0  0  0  0  0  0  0  0
    4.4842   -1.4484    0.0000 C   0  0  0  0  0  0  0  0  0  0  0  0
    4.2287   -2.2349    0.0000 C   0  0  0  0  0  0  0  0  0  0  0  0
    3.4017   -2.2349    0.0000 N   0  0  0  0  0  0  0  0  0  0  0  0
    3.1461   -1.4484    0.0000 C   0  0  0  0  0  0  0  0  0  0  0  0
    2.3596   -1.1928    0.0000 C   0  0  0  0  0  0  0  0  0  0  0  0
    1.7450   -1.7462    0.0000 C   0  0  0  0  0  0  0  0  0  0  0  0
    0.9585   -1.4906    0.0000 C   0  0  0  0  0  0  0  0  0  0  0  0
    0.7865   -0.6817    0.0000 C   0  0  0  0  0  0  0  0  0  0  0  0
    0.0000   -0.4262    0.0000 Cl  0  0  0  0  0  0  0  0  0  0  0  0
    1.4011   -0.1283    0.0000 C   0  0  0  0  0  0  0  0  0  0  0  0
    2.1876   -0.3839    0.0000 C   0  0  0  0  0  0  0  0  0  0  0  0
  1  2  1  0  0  0
  2  3  2  0  0  0
  2  4  2  0  0  0
  2  5  1  0  0  0
  5  6  1  0  0  0
  6  7  1  0  0  0
  7  8  1  0  0  0
  8 12  1  0  0  0
  8  9  1  0  0  0
  9 10  2  0  0  0
 10 11  1  0  0  0
 11 12  2  0  0  0
 12 13  1  0  0  0
 13 19  1  0  0  0
 13 14  2  0  0  0
 14 15  1  0  0  0
 15 16  2  0  0  0
 16 17  1  0  0  0
 16 18  1  0  0  0
 18 19  2  0  0  0
M  END
>  <Entry>
171

>  <title>
13-4149

>  <rigid docking scores>
-16.9242

>  <InChIKey>
CAIIZLOHRJSXEU-UHFFFAOYSA-N

$$$$
atoms 18 bonds 19
dotmatics
mol io
 18 19  0  0  0  0  0  0  0  0999 V2000
    2.6847    2.0966    0.0000 C   0  0  0  0  0  0  0  0  0  0  0  0
    2.6847    1.2696    0.0000 C   0  0  0  0  0  0  0  0  0  0  0  0
    3.3538    0.7835    0.0000 O   0  0  0  0  0  0  0  0  0  0  0  0
    3.0982   -0.0030    0.0000 C   0  0  0  0  0  0  0  0  0  0  0  0
    3.5843   -0.6721    0.0000 C   0  0  0  0  0  0  0  0  0  0  0  0
    3.2480   -1.4276    0.0000 C   0  0  0  0  0  0  0  0  0  0  0  0
    3.7341   -2.0966    0.0000 C   0  0  0  0  0  0  0  0  0  0  0  0
    4.5565   -2.0102    0.0000 C   0  0  0  0  0  0  0  0  0  0  0  0
    4.8929   -1.2547    0.0000 C   0  0  0  0  0  0  0  0  0  0  0  0
    5.7154   -1.1682    0.0000 Cl  0  0  0  0  0  0  0  0  0  0  0  0
    4.4068   -0.5856    0.0000 C   0  0  0  0  0  0  0  0  0  0  0  0
    2.2712   -0.0030    0.0000 N   0  0  0  0  0  0  0  0  0  0  0  0
    2.0157    0.7835    0.0000 C   0  0  0  0  0  0  0  0  0  0  0  0
    1.2292    1.0391    0.0000 C   0  0  0  0  0  0  0  0  0  0  0  0
    0.6146    0.4857    0.0000 S   0  0  0  0  0  0  0  0  0  0  0  0
    0.0612    1.1003    0.0000 C   0  0  0  0  0  0  0  0  0  0  0  0
    0.0000   -0.0677    0.0000 O   0  0  0  0  0  0  0  0  0  0  0  0
    1.1680   -0.1289    0.0000 O   0  0  0  0  0  0  0  0  0  0  0  0
  1  2  1  0  0  0
  2 13  2  0  0  0
  2  3  1  0  0  0
  3  4  1  0  0  0
  4  5  1  0  0  0
  5 11  1  0  0  0
  5  6  2  0  0  0
  6  7  1  0  0  0
  7  8  2  0  0  0
  8  9  1  0  0  0
  9 10  1  0  0  0
  9 11  2  0  0  0
  4 12  2  0  0  0
 12 13  1  0  0  0
 13 14  1  0  0  0
 14 15  1  0  0  0
 15 16  1  0  0  0
 15 17  2  0  0  0
 15 18  2  0  0  0
M  END
>  <Entry>
172

>  <title>
13-4171

>  <rigid docking scores>
-15.3361

>  <InChIKey>
PJJZDKRFBJTTMI-UHFFFAOYSA-N

$$$$
atoms 19 bonds 21
dotmatics
mol io
 19 21  0  0  0  0  0  0  0  0999 V2000
    3.8710    0.8388    0.0000 O   0  0  0  0  0  0  0  0  0  0  0  0
    3.4569    0.1230    0.0000 S   0  0  0  0  0  0  0  0  0  0  0  0
    3.0428   -0.5929    0.0000 O   0  0  0  0  0  0  0  0  0  0  0  0
    2.7410    0.5371    0.0000 N   0  0  0  0  0  0  0  0  0  0  0  0
    2.0245    0.1242    0.0000 C   0  0  0  0  0  0  0  0  0  0  0  0
    1.3086    0.5383    0.0000 C   0  0  0  0  0  0  0  0  0  0  0  0
    0.5528    0.2026    0.0000 C   0  0  0  0  0  0  0  0  0  0  0  0
    0.0000    0.8177    0.0000 S   0  0  0  0  0  0  0  0  0  0  0  0
    0.4141    1.5335    0.0000 C   0  0  0  0  0  0  0  0  0  0  0  0
    1.2229    1.3609    0.0000 N   0  0  0  0  0  0  0  0  0  0  0  0
    4.1727   -0.2912    0.0000 C   0  0  0  0  0  0  0  0  0  0  0  0
    4.1727   -1.1194    0.0000 C   0  0  0  0  0  0  0  0  0  0  0  0
    4.8886   -1.5335    0.0000 C   0  0  0  0  0  0  0  0  0  0  0  0
    5.6044   -1.1194    0.0000 C   0  0  0  0  0  0  0  0  0  0  0  0
    6.3912   -1.3738    0.0000 S   0  0  0  0  0  0  0  0  0  0  0  0
    6.8823   -0.7053    0.0000 C   0  0  0  0  0  0  0  0  0  0  0  0
    6.3912   -0.0368    0.0000 N   0  0  0  0  0  0  0  0  0  0  0  0
    5.6044   -0.2912    0.0000 C   0  0  0  0  0  0  0  0  0  0  0  0
    4.8886    0.1230    0.0000 C   0  0  0  0  0  0  0  0  0  0  0  0
  1  2  2  0  0  0
  2  3  2  0  0  0
  2  4  1  0  0  0
  4  5  1  0  0  0
  5  6  1  0  0  0
  6 10  1  0  0  0
  6  7  2  0  0  0
  7  8  1  0  0  0
  8  9  1  0  0  0
  9 10  2  0  0  0
  2 11  1  0  0  0
 11 19  1  0  0  0
 11 12  2  0  0  0
 12 13  1  0  0  0
 13 14  2  0  0  0
 14 18  1  0  0  0
 14 15  1  0  0  0
 15 16  1  0  0  0
 16 17  2  0  0  0
 17 18  1  0  0  0
 18 19  2  0  0  0
M  END
>  <Entry>
173

>  <title>
13-4268

>  <rigid docking scores>
-15.9146

>  <InChIKey>
ORVVYUBZCJFUOF-UHFFFAOYSA-N

$$$$
atoms 22 bonds 24
dotmatics
mol io
 22 24  0  0  0  0  0  0  0  0999 V2000
    2.8752    1.6552    0.0000 C   0  0  0  0  0  0  0  0  0  0  0  0
    2.8693    0.8282    0.0000 N   0  0  0  0  0  0  0  0  0  0  0  0
    3.5851    0.4141    0.0000 C   0  0  0  0  0  0  0  0  0  0  0  0
    4.3010    0.8282    0.0000 C   0  0  0  0  0  0  0  0  0  0  0  0
    4.3003    1.6552    0.0000 O   0  0  0  0  0  0  0  0  0  0  0  0
    5.0175    0.4154    0.0000 N   0  0  0  0  0  0  0  0  0  0  0  0
    5.7334    0.8295    0.0000 C   0  0  0  0  0  0  0  0  0  0  0  0
    6.4499    0.4166    0.0000 C   0  0  0  0  0  0  0  0  0  0  0  0
    7.2051    0.7536    0.0000 C   0  0  0  0  0  0  0  0  0  0  0  0
    7.7591    0.1395    0.0000 C   0  0  0  0  0  0  0  0  0  0  0  0
    7.3462   -0.5770    0.0000 C   0  0  0  0  0  0  0  0  0  0  0  0
    6.5371   -0.4058    0.0000 S   0  0  0  0  0  0  0  0  0  0  0  0
    3.5851   -0.4141    0.0000 C   0  0  0  0  0  0  0  0  0  0  0  0
    2.8693   -0.8283    0.0000 C   0  0  0  0  0  0  0  0  0  0  0  0
    2.8752   -1.6552    0.0000 O   0  0  0  0  0  0  0  0  0  0  0  0
    2.1475   -0.4141    0.0000 C   0  0  0  0  0  0  0  0  0  0  0  0
    1.4317   -0.8283    0.0000 C   0  0  0  0  0  0  0  0  0  0  0  0
    0.7158   -0.4141    0.0000 C   0  0  0  0  0  0  0  0  0  0  0  0
    0.0000   -0.8283    0.0000 F   0  0  0  0  0  0  0  0  0  0  0  0
    0.7158    0.4141    0.0000 C   0  0  0  0  0  0  0  0  0  0  0  0
    1.4317    0.8282    0.0000 C   0  0  0  0  0  0  0  0  0  0  0  0
    2.1475    0.4141    0.0000 C   0  0  0  0  0  0  0  0  0  0  0  0
  1  2  1  0  0  0
  2 22  1  0  0  0
  2  3  1  0  0  0
  3  4  1  0  0  0
  4  5  2  0  0  0
  4  6  1  0  0  0
  6  7  1  0  0  0
  7  8  1  0  0  0
  8 12  1  0  0  0
  8  9  2  0  0  0
  9 10  1  0  0  0
 10 11  2  0  0  0
 11 12  1  0  0  0
  3 13  2  0  0  0
 13 14  1  0  0  0
 14 15  2  0  0  0
 14 16  1  0  0  0
 16 22  1  0  0  0
 16 17  2  0  0  0
 17 18  1  0  0  0
 18 19  1  0  0  0
 18 20  2  0  0  0
 20 21  1  0  0  0
 21 22  2  0  0  0
M  END
>  <Entry>
174

>  <title>
13-4331

>  <rigid docking scores>
-16.7014

>  <InChIKey>
MIOZTSNTMUTDGE-UHFFFAOYSA-N

$$$$
atoms 22 bonds 23
dotmatics
mol io
 22 23  0  0  0  0  0  0  0  0999 V2000
   -4.0419    0.7162    0.0000 C   0  0  0  0  0  0  0  0  0  0  0  0
   -3.2149    0.7162    0.0000 C   0  0  0  0  0  0  0  0  0  0  0  0
   -2.8014    0.0000    0.0000 O   0  0  0  0  0  0  0  0  0  0  0  0
   -2.8014    1.4324    0.0000 N   0  0  0  0  0  0  0  0  0  0  0  0
   -1.9744    1.4324    0.0000 C   0  0  0  0  0  0  0  0  0  0  0  0
   -1.9744    2.2594    0.0000 C   0  0  0  0  0  0  0  0  0  0  0  0
   -1.9744    0.6054    0.0000 C   0  0  0  0  0  0  0  0  0  0  0  0
   -1.1474    1.4324    0.0000 C   0  0  0  0  0  0  0  0  0  0  0  0
   -0.7339    2.1486    0.0000 O   0  0  0  0  0  0  0  0  0  0  0  0
   -0.7339    0.7162    0.0000 N   0  0  0  0  0  0  0  0  0  0  0  0
    0.0931    0.7162    0.0000 C   0  0  0  0  0  0  0  0  0  0  0  0
    0.5792    1.3853    0.0000 N   0  0  0  0  0  0  0  0  0  0  0  0
    1.3657    1.1297    0.0000 C   0  0  0  0  0  0  0  0  0  0  0  0
    2.0348    1.6158    0.0000 C   0  0  0  0  0  0  0  0  0  0  0  0
    1.9483    2.4383    0.0000 C   0  0  0  0  0  0  0  0  0  0  0  0
    2.6174    2.9244    0.0000 C   0  0  0  0  0  0  0  0  0  0  0  0
    3.3729    2.5880    0.0000 C   0  0  0  0  0  0  0  0  0  0  0  0
    4.0419    3.0741    0.0000 F   0  0  0  0  0  0  0  0  0  0  0  0
    3.4593    1.7655    0.0000 C   0  0  0  0  0  0  0  0  0  0  0  0
    2.7903    1.2794    0.0000 C   0  0  0  0  0  0  0  0  0  0  0  0
    1.3657    0.3027    0.0000 C   0  0  0  0  0  0  0  0  0  0  0  0
    0.5792    0.0471    0.0000 S   0  0  0  0  0  0  0  0  0  0  0  0
  1  2  1  0  0  0
  2  3  2  0  0  0
  2  4  1  0  0  0
  4  5  1  0  0  0
  5  6  1  0  0  0
  5  7  1  0  0  0
  5  8  1  0  0  0
  8  9  2  0  0  0
  8 10  1  0  0  0
 10 11  1  0  0  0
 11 22  1  0  0  0
 11 12  2  0  0  0
 12 13  1  0  0  0
 13 14  1  0  0  0
 14 20  1  0  0  0
 14 15  2  0  0  0
 15 16  1  0  0  0
 16 17  2  0  0  0
 17 18  1  0  0  0
 17 19  1  0  0  0
 19 20  2  0  0  0
 13 21  2  0  0  0
 21 22  1  0  0  0
M  END
>  <Entry>
175

>  <title>
13-4996

>  <rigid docking scores>
-18.2738

>  <InChIKey>
BEFFBNRVGXMSOW-UHFFFAOYSA-N

>  <ZINC>
ZINC000069508492

>  <eMolecules>
36315368

>  <Pubchem>
53572470

>  <Mcule>
MCULE-6749877424

>  <MolPort>
MolPort-020-145-349

$$$$
atoms 21 bonds 24
dotmatics
mol io
 21 24  0  0  0  0  0  0  0  0999 V2000
    0.7173   -2.6893    0.0000 C   0  0  0  0  0  0  0  0  0  0  0  0
    0.0007   -2.2764    0.0000 C   0  0  0  0  0  0  0  0  0  0  0  0
    0.0000   -1.4494    0.0000 N   0  0  0  0  0  0  0  0  0  0  0  0
    0.7158   -1.0353    0.0000 C   0  0  0  0  0  0  0  0  0  0  0  0
    1.4324   -1.4482    0.0000 C   0  0  0  0  0  0  0  0  0  0  0  0
    2.1482   -1.0341    0.0000 C   0  0  0  0  0  0  0  0  0  0  0  0
    2.8641   -1.4482    0.0000 N   0  0  0  0  0  0  0  0  0  0  0  0
    3.5799   -1.0341    0.0000 C   0  0  0  0  0  0  0  0  0  0  0  0
    3.5799   -0.2058    0.0000 C   0  0  0  0  0  0  0  0  0  0  0  0
    2.8641    0.2083    0.0000 C   0  0  0  0  0  0  0  0  0  0  0  0
    2.8641    1.0353    0.0000 N   0  0  0  0  0  0  0  0  0  0  0  0
    2.1479    1.4488    0.0000 C   0  0  0  0  0  0  0  0  0  0  0  0
    2.1479    2.2758    0.0000 C   0  0  0  0  0  0  0  0  0  0  0  0
    2.8641    2.6893    0.0000 O   0  0  0  0  0  0  0  0  0  0  0  0
    3.5803    2.2758    0.0000 C   0  0  0  0  0  0  0  0  0  0  0  0
    3.5803    1.4488    0.0000 C   0  0  0  0  0  0  0  0  0  0  0  0
    2.1482   -0.2058    0.0000 N   0  0  0  0  0  0  0  0  0  0  0  0
    4.3668    0.0486    0.0000 C   0  0  0  0  0  0  0  0  0  0  0  0
    4.8519   -0.6199    0.0000 C   0  0  0  0  0  0  0  0  0  0  0  0
    4.3668   -1.2885    0.0000 C   0  0  0  0  0  0  0  0  0  0  0  0
    1.4331   -2.2752    0.0000 C   0  0  0  0  0  0  0  0  0  0  0  0
  1 21  1  0  0  0
  1  2  2  0  0  0
  2  3  1  0  0  0
  3  4  2  0  0  0
  4  5  1  0  0  0
  5  6  1  0  0  0
  6 17  1  0  0  0
  6  7  2  0  0  0
  7  8  1  0  0  0
  8 20  1  0  0  0
  8  9  2  0  0  0
  9 10  1  0  0  0
 10 11  1  0  0  0
 11 16  1  0  0  0
 11 12  1  0  0  0
 12 13  1  0  0  0
 13 14  1  0  0  0
 14 15  1  0  0  0
 15 16  1  0  0  0
 10 17  2  0  0  0
  9 18  1  0  0  0
 18 19  1  0  0  0
 19 20  1  0  0  0
  5 21  2  0  0  0
M  END
>  <Entry>
176

>  <title>
13-5077

>  <rigid docking scores>
-17.9192

>  <InChIKey>
GXZADJZFIHPNRF-UHFFFAOYSA-N

$$$$
atoms 20 bonds 22
dotmatics
mol io
 20 22  0  0  0  0  0  0  0  0999 V2000
   -3.8814    2.0293    0.0000 C   0  0  0  0  0  0  0  0  0  0  0  0
   -3.0544    2.0293    0.0000 C   0  0  0  0  0  0  0  0  0  0  0  0
   -2.6409    2.7455    0.0000 C   0  0  0  0  0  0  0  0  0  0  0  0
   -1.8139    2.7455    0.0000 C   0  0  0  0  0  0  0  0  0  0  0  0
   -1.4004    2.0293    0.0000 C   0  0  0  0  0  0  0  0  0  0  0  0
   -0.5734    2.0293    0.0000 C   0  0  0  0  0  0  0  0  0  0  0  0
   -0.0873    2.6984    0.0000 N   0  0  0  0  0  0  0  0  0  0  0  0
    0.6992    2.4428    0.0000 C   0  0  0  0  0  0  0  0  0  0  0  0
    0.6992    1.6158    0.0000 C   0  0  0  0  0  0  0  0  0  0  0  0
    1.3683    1.1297    0.0000 C   0  0  0  0  0  0  0  0  0  0  0  0
    2.1548    1.3853    0.0000 N   0  0  0  0  0  0  0  0  0  0  0  0
    2.6409    0.7162    0.0000 C   0  0  0  0  0  0  0  0  0  0  0  0
    3.4679    0.7162    0.0000 C   0  0  0  0  0  0  0  0  0  0  0  0
    3.8814   -0.0000    0.0000 N   0  0  0  0  0  0  0  0  0  0  0  0
    3.8814    1.4324    0.0000 O   0  0  0  0  0  0  0  0  0  0  0  0
    2.1548    0.0471    0.0000 C   0  0  0  0  0  0  0  0  0  0  0  0
    1.3683    0.3027    0.0000 S   0  0  0  0  0  0  0  0  0  0  0  0
   -0.0873    1.3602    0.0000 O   0  0  0  0  0  0  0  0  0  0  0  0
   -1.8139    1.3131    0.0000 C   0  0  0  0  0  0  0  0  0  0  0  0
   -2.6409    1.3131    0.0000 C   0  0  0  0  0  0  0  0  0  0  0  0
  1  2  1  0  0  0
  2 20  1  0  0  0
  2  3  2  0  0  0
  3  4  1  0  0  0
  4  5  2  0  0  0
  5  6  1  0  0  0
  6 18  1  0  0  0
  6  7  2  0  0  0
  7  8  1  0  0  0
  8  9  2  0  0  0
  9 10  1  0  0  0
 10 17  1  0  0  0
 10 11  2  0  0  0
 11 12  1  0  0  0
 12 13  1  0  0  0
 13 14  1  0  0  0
 13 15  2  0  0  0
 12 16  2  0  0  0
 16 17  1  0  0  0
  9 18  1  0  0  0
  5 19  1  0  0  0
 19 20  2  0  0  0
M  END
>  <Entry>
177

>  <title>
13-5102

>  <rigid docking scores>
-15.4149

>  <InChIKey>
ACDTXYFKHKXUJT-UHFFFAOYSA-N

$$$$
atoms 21 bonds 23
dotmatics
mol io
 21 23  0  0  0  0  0  0  0  0999 V2000
   -3.9574    2.9244    0.0000 C   0  0  0  0  0  0  0  0  0  0  0  0
   -3.1304    2.9244    0.0000 C   0  0  0  0  0  0  0  0  0  0  0  0
   -2.7169    3.6406    0.0000 O   0  0  0  0  0  0  0  0  0  0  0  0
   -2.7169    2.2082    0.0000 N   0  0  0  0  0  0  0  0  0  0  0  0
   -1.8899    2.2082    0.0000 C   0  0  0  0  0  0  0  0  0  0  0  0
   -1.4764    2.9244    0.0000 C   0  0  0  0  0  0  0  0  0  0  0  0
   -0.6494    2.9244    0.0000 C   0  0  0  0  0  0  0  0  0  0  0  0
   -0.2359    2.2082    0.0000 C   0  0  0  0  0  0  0  0  0  0  0  0
    0.5911    2.2082    0.0000 N   0  0  0  0  0  0  0  0  0  0  0  0
    1.0772    2.8772    0.0000 C   0  0  0  0  0  0  0  0  0  0  0  0
    1.8638    2.6217    0.0000 C   0  0  0  0  0  0  0  0  0  0  0  0
    1.8638    1.7947    0.0000 C   0  0  0  0  0  0  0  0  0  0  0  0
    2.5328    1.3086    0.0000 C   0  0  0  0  0  0  0  0  0  0  0  0
    3.2883    1.6449    0.0000 C   0  0  0  0  0  0  0  0  0  0  0  0
    3.9574    1.1588    0.0000 C   0  0  0  0  0  0  0  0  0  0  0  0
    3.8709    0.3364    0.0000 C   0  0  0  0  0  0  0  0  0  0  0  0
    3.1154   -0.0000    0.0000 N   0  0  0  0  0  0  0  0  0  0  0  0
    2.4464    0.4861    0.0000 C   0  0  0  0  0  0  0  0  0  0  0  0
    1.0772    1.5391    0.0000 N   0  0  0  0  0  0  0  0  0  0  0  0
   -0.6494    1.4920    0.0000 C   0  0  0  0  0  0  0  0  0  0  0  0
   -1.4764    1.4920    0.0000 C   0  0  0  0  0  0  0  0  0  0  0  0
  1  2  1  0  0  0
  2  3  2  0  0  0
  2  4  1  0  0  0
  4  5  1  0  0  0
  5 21  1  0  0  0
  5  6  2  0  0  0
  6  7  1  0  0  0
  7  8  2  0  0  0
  8  9  1  0  0  0
  9 19  1  0  0  0
  9 10  1  0  0  0
 10 11  2  0  0  0
 11 12  1  0  0  0
 12 13  1  0  0  0
 13 18  1  0  0  0
 13 14  2  0  0  0
 14 15  1  0  0  0
 15 16  2  0  0  0
 16 17  1  0  0  0
 17 18  2  0  0  0
 12 19  2  0  0  0
  8 20  1  0  0  0
 20 21  2  0  0  0
M  END
>  <Entry>
178

>  <title>
13-5255

>  <rigid docking scores>
-17.2696

>  <InChIKey>
SXGNKTFSLUIDKT-UHFFFAOYSA-N

$$$$
atoms 24 bonds 26
dotmatics
mol io
 24 26  0  0  0  0  0  0  0  0999 V2000
    2.4810   -3.2224    0.0000 C   0  0  0  0  0  0  0  0  0  0  0  0
    2.8951   -2.5065    0.0000 N   0  0  0  0  0  0  0  0  0  0  0  0
    3.7221   -2.5073    0.0000 C   0  0  0  0  0  0  0  0  0  0  0  0
    4.1362   -1.7914    0.0000 C   0  0  0  0  0  0  0  0  0  0  0  0
    3.7234   -1.0748    0.0000 C   0  0  0  0  0  0  0  0  0  0  0  0
    2.8964   -1.0741    0.0000 C   0  0  0  0  0  0  0  0  0  0  0  0
    2.4835   -0.3576    0.0000 C   0  0  0  0  0  0  0  0  0  0  0  0
    1.6565   -0.3568    0.0000 O   0  0  0  0  0  0  0  0  0  0  0  0
    2.8976    0.3583    0.0000 N   0  0  0  0  0  0  0  0  0  0  0  0
    2.4847    1.0748    0.0000 C   0  0  0  0  0  0  0  0  0  0  0  0
    1.6577    1.0756    0.0000 O   0  0  0  0  0  0  0  0  0  0  0  0
    2.8989    1.7907    0.0000 C   0  0  0  0  0  0  0  0  0  0  0  0
    3.7271    1.7907    0.0000 C   0  0  0  0  0  0  0  0  0  0  0  0
    4.1412    2.5065    0.0000 C   0  0  0  0  0  0  0  0  0  0  0  0
    3.7271    3.2224    0.0000 C   0  0  0  0  0  0  0  0  0  0  0  0
    2.8989    3.2224    0.0000 C   0  0  0  0  0  0  0  0  0  0  0  0
    2.4847    2.5065    0.0000 C   0  0  0  0  0  0  0  0  0  0  0  0
    1.6565    2.5065    0.0000 C   0  0  0  0  0  0  0  0  0  0  0  0
    1.2424    1.7907    0.0000 C   0  0  0  0  0  0  0  0  0  0  0  0
    0.4141    1.7907    0.0000 C   0  0  0  0  0  0  0  0  0  0  0  0
    0.0000    2.5065    0.0000 C   0  0  0  0  0  0  0  0  0  0  0  0
    0.4141    3.2224    0.0000 C   0  0  0  0  0  0  0  0  0  0  0  0
    1.2424    3.2224    0.0000 C   0  0  0  0  0  0  0  0  0  0  0  0
    2.4822   -1.7900    0.0000 C   0  0  0  0  0  0  0  0  0  0  0  0
  1  2  1  0  0  0
  2 24  1  0  0  0
  2  3  1  0  0  0
  3  4  1  0  0  0
  4  5  1  0  0  0
  5  6  1  0  0  0
  6  7  1  0  0  0
  7  8  2  0  0  0
  7  9  1  0  0  0
  9 10  1  0  0  0
 10 11  2  0  0  0
 10 12  1  0  0  0
 12 17  1  0  0  0
 12 13  2  0  0  0
 13 14  1  0  0  0
 14 15  2  0  0  0
 15 16  1  0  0  0
 16 17  2  0  0  0
 17 18  1  0  0  0
 18 23  1  0  0  0
 18 19  2  0  0  0
 19 20  1  0  0  0
 20 21  2  0  0  0
 21 22  1  0  0  0
 22 23  2  0  0  0
  6 24  1  0  0  0
M  END
>  <Entry>
179

>  <title>
2-3099

>  <rigid docking scores>
-18.3656

>  <InChIKey>
VKOOZIOSUUTAIV-UHFFFAOYSA-N

$$$$
atoms 20 bonds 22
dotmatics
mol io
 20 22  0  0  0  0  0  0  0  0999 V2000
    0.0000   -0.5934    0.0000 C   0  0  0  0  0  0  0  0  0  0  0  0
    0.4873    0.0747    0.0000 C   0  0  0  0  0  0  0  0  0  0  0  0
    1.3131    0.0747    0.0000 C   0  0  0  0  0  0  0  0  0  0  0  0
    1.5667    0.8592    0.0000 C   0  0  0  0  0  0  0  0  0  0  0  0
    2.3543    1.1116    0.0000 C   0  0  0  0  0  0  0  0  0  0  0  0
    2.5294    1.9199    0.0000 C   0  0  0  0  0  0  0  0  0  0  0  0
    3.3170    2.1723    0.0000 C   0  0  0  0  0  0  0  0  0  0  0  0
    3.9293    1.6165    0.0000 C   0  0  0  0  0  0  0  0  0  0  0  0
    3.7542    0.8082    0.0000 N   0  0  0  0  0  0  0  0  0  0  0  0
    4.3665    0.2524    0.0000 C   0  0  0  0  0  0  0  0  0  0  0  0
    5.1541    0.5048    0.0000 O   0  0  0  0  0  0  0  0  0  0  0  0
    4.1914   -0.5558    0.0000 C   0  0  0  0  0  0  0  0  0  0  0  0
    4.8037   -1.1116    0.0000 C   0  0  0  0  0  0  0  0  0  0  0  0
    4.6286   -1.9199    0.0000 N   0  0  0  0  0  0  0  0  0  0  0  0
    3.8410   -2.1723    0.0000 C   0  0  0  0  0  0  0  0  0  0  0  0
    3.2287   -1.6165    0.0000 C   0  0  0  0  0  0  0  0  0  0  0  0
    3.4038   -0.8082    0.0000 N   0  0  0  0  0  0  0  0  0  0  0  0
    2.9666    0.5558    0.0000 C   0  0  0  0  0  0  0  0  0  0  0  0
    0.9002    1.3488    0.0000 N   0  0  0  0  0  0  0  0  0  0  0  0
    0.2337    0.8592    0.0000 N   0  0  0  0  0  0  0  0  0  0  0  0
  1  2  1  0  0  0
  2 20  2  0  0  0
  2  3  1  0  0  0
  3  4  2  0  0  0
  4  5  1  0  0  0
  5 18  1  0  0  0
  5  6  1  0  0  0
  6  7  1  0  0  0
  7  8  1  0  0  0
  8  9  1  0  0  0
  9 10  1  0  0  0
 10 11  2  0  0  0
 10 12  1  0  0  0
 12 17  1  0  0  0
 12 13  2  0  0  0
 13 14  1  0  0  0
 14 15  2  0  0  0
 15 16  1  0  0  0
 16 17  2  0  0  0
  9 18  1  0  0  0
  4 19  1  0  0  0
 19 20  1  0  0  0
M  END
>  <Entry>
180

>  <title>
13-5880

>  <rigid docking scores>
-18.3875

>  <InChIKey>
ZZFXRIUEKVMGPU-UHFFFAOYSA-N

$$$$
atoms 19 bonds 21
dotmatics
mol io
 19 21  0  0  0  0  0  0  0  0999 V2000
    4.1412    0.0609    0.0000 C   0  0  0  0  0  0  0  0  0  0  0  0
    3.7271   -0.6549    0.0000 C   0  0  0  0  0  0  0  0  0  0  0  0
    4.1412   -1.3708    0.0000 N   0  0  0  0  0  0  0  0  0  0  0  0
    3.7271   -2.0866    0.0000 C   0  0  0  0  0  0  0  0  0  0  0  0
    2.8989   -2.0866    0.0000 C   0  0  0  0  0  0  0  0  0  0  0  0
    2.4847   -1.3708    0.0000 C   0  0  0  0  0  0  0  0  0  0  0  0
    1.6565   -1.3708    0.0000 C   0  0  0  0  0  0  0  0  0  0  0  0
    1.2424   -2.0866    0.0000 C   0  0  0  0  0  0  0  0  0  0  0  0
    0.4141   -2.0866    0.0000 C   0  0  0  0  0  0  0  0  0  0  0  0
    0.0000   -1.3708    0.0000 C   0  0  0  0  0  0  0  0  0  0  0  0
    0.4141   -0.6549    0.0000 N   0  0  0  0  0  0  0  0  0  0  0  0
    0.0000    0.0609    0.0000 C   0  0  0  0  0  0  0  0  0  0  0  0
    0.4129    0.7775    0.0000 C   0  0  0  0  0  0  0  0  0  0  0  0
    0.0758    1.5327    0.0000 C   0  0  0  0  0  0  0  0  0  0  0  0
    0.6899    2.0866    0.0000 N   0  0  0  0  0  0  0  0  0  0  0  0
    1.4065    1.6737    0.0000 C   0  0  0  0  0  0  0  0  0  0  0  0
    1.2353    0.8646    0.0000 N   0  0  0  0  0  0  0  0  0  0  0  0
    1.2424   -0.6549    0.0000 C   0  0  0  0  0  0  0  0  0  0  0  0
    2.8989   -0.6549    0.0000 N   0  0  0  0  0  0  0  0  0  0  0  0
  1  2  1  0  0  0
  2 19  1  0  0  0
  2  3  2  0  0  0
  3  4  1  0  0  0
  4  5  2  0  0  0
  5  6  1  0  0  0
  6  7  1  0  0  0
  7 18  1  0  0  0
  7  8  1  0  0  0
  8  9  1  0  0  0
  9 10  1  0  0  0
 10 11  1  0  0  0
 11 12  1  0  0  0
 12 13  1  0  0  0
 13 17  1  0  0  0
 13 14  2  0  0  0
 14 15  1  0  0  0
 15 16  1  0  0  0
 16 17  2  0  0  0
 11 18  1  0  0  0
  6 19  2  0  0  0
M  END
>  <Entry>
181

>  <title>
13-5882

>  <rigid docking scores>
-15.7348

>  <InChIKey>
USUIEZHVAQOJJL-UHFFFAOYSA-N

>  <Pubchem>
110114972

$$$$
atoms 19 bonds 20
dotmatics
mol io
 19 20  0  0  0  0  0  0  0  0999 V2000
    5.7296    1.6540    0.0000 N   0  0  0  0  0  0  0  0  0  0  0  0
    5.7296    0.8270    0.0000 C   0  0  0  0  0  0  0  0  0  0  0  0
    5.7296    0.0000    0.0000 C   0  0  0  0  0  0  0  0  0  0  0  0
    6.4458   -0.4135    0.0000 C   0  0  0  0  0  0  0  0  0  0  0  0
    6.4458   -1.2405    0.0000 C   0  0  0  0  0  0  0  0  0  0  0  0
    5.7296   -1.6540    0.0000 C   0  0  0  0  0  0  0  0  0  0  0  0
    5.0134   -1.2405    0.0000 C   0  0  0  0  0  0  0  0  0  0  0  0
    4.2972   -1.6540    0.0000 N   0  0  0  0  0  0  0  0  0  0  0  0
    3.5810   -1.2405    0.0000 C   0  0  0  0  0  0  0  0  0  0  0  0
    3.5810   -0.4135    0.0000 O   0  0  0  0  0  0  0  0  0  0  0  0
    2.8648   -1.6540    0.0000 N   0  0  0  0  0  0  0  0  0  0  0  0
    2.1486   -1.2405    0.0000 C   0  0  0  0  0  0  0  0  0  0  0  0
    1.4324   -1.6540    0.0000 C   0  0  0  0  0  0  0  0  0  0  0  0
    0.7162   -1.2405    0.0000 C   0  0  0  0  0  0  0  0  0  0  0  0
    0.7162   -0.4135    0.0000 C   0  0  0  0  0  0  0  0  0  0  0  0
    0.0000    0.0000    0.0000 Cl  0  0  0  0  0  0  0  0  0  0  0  0
    1.4324    0.0000    0.0000 C   0  0  0  0  0  0  0  0  0  0  0  0
    2.1486   -0.4135    0.0000 N   0  0  0  0  0  0  0  0  0  0  0  0
    5.0134   -0.4135    0.0000 C   0  0  0  0  0  0  0  0  0  0  0  0
  1  2  3  0  0  0
  2  3  1  0  0  0
  3 19  1  0  0  0
  3  4  2  0  0  0
  4  5  1  0  0  0
  5  6  2  0  0  0
  6  7  1  0  0  0
  7  8  1  0  0  0
  8  9  1  0  0  0
  9 10  2  0  0  0
  9 11  1  0  0  0
 11 12  1  0  0  0
 12 18  1  0  0  0
 12 13  2  0  0  0
 13 14  1  0  0  0
 14 15  2  0  0  0
 15 16  1  0  0  0
 15 17  1  0  0  0
 17 18  2  0  0  0
  7 19  2  0  0  0
M  END
>  <Entry>
182

>  <title>
13-6655

>  <rigid docking scores>
-18.3515

>  <InChIKey>
PBKWCUQEOUKXPZ-UHFFFAOYSA-N

$$$$
atoms 21 bonds 23
dotmatics
mol io
 21 23  0  0  0  0  0  0  0  0999 V2000
    0.7040    2.1486    0.0000 O   0  0  0  0  0  0  0  0  0  0  0  0
    0.2905    1.4324    0.0000 C   0  0  0  0  0  0  0  0  0  0  0  0
    0.7040    0.7162    0.0000 N   0  0  0  0  0  0  0  0  0  0  0  0
    1.5310    0.7162    0.0000 C   0  0  0  0  0  0  0  0  0  0  0  0
    1.9445   -0.0000    0.0000 C   0  0  0  0  0  0  0  0  0  0  0  0
    2.7715    0.0000    0.0000 C   0  0  0  0  0  0  0  0  0  0  0  0
    3.1850    0.7162    0.0000 C   0  0  0  0  0  0  0  0  0  0  0  0
    2.7715    1.4324    0.0000 N   0  0  0  0  0  0  0  0  0  0  0  0
    1.9445    1.4324    0.0000 C   0  0  0  0  0  0  0  0  0  0  0  0
   -0.5365    1.4324    0.0000 N   0  0  0  0  0  0  0  0  0  0  0  0
   -0.9500    2.1486    0.0000 C   0  0  0  0  0  0  0  0  0  0  0  0
   -0.5365    2.8648    0.0000 C   0  0  0  0  0  0  0  0  0  0  0  0
   -0.9500    3.5810    0.0000 C   0  0  0  0  0  0  0  0  0  0  0  0
   -1.7770    3.5810    0.0000 C   0  0  0  0  0  0  0  0  0  0  0  0
   -2.1905    2.8648    0.0000 N   0  0  0  0  0  0  0  0  0  0  0  0
   -1.7770    2.1486    0.0000 C   0  0  0  0  0  0  0  0  0  0  0  0
   -2.1905    1.4324    0.0000 N   0  0  0  0  0  0  0  0  0  0  0  0
   -3.0130    1.3460    0.0000 C   0  0  0  0  0  0  0  0  0  0  0  0
   -3.1850    0.5370    0.0000 C   0  0  0  0  0  0  0  0  0  0  0  0
   -2.4688    0.1235    0.0000 C   0  0  0  0  0  0  0  0  0  0  0  0
   -1.8542    0.6769    0.0000 C   0  0  0  0  0  0  0  0  0  0  0  0
  1  2  2  0  0  0
  2  3  1  0  0  0
  3  4  1  0  0  0
  4  9  1  0  0  0
  4  5  2  0  0  0
  5  6  1  0  0  0
  6  7  2  0  0  0
  7  8  1  0  0  0
  8  9  2  0  0  0
  2 10  1  0  0  0
 10 11  1  0  0  0
 11 16  1  0  0  0
 11 12  2  0  0  0
 12 13  1  0  0  0
 13 14  2  0  0  0
 14 15  1  0  0  0
 15 16  2  0  0  0
 16 17  1  0  0  0
 17 21  1  0  0  0
 17 18  1  0  0  0
 18 19  1  0  0  0
 19 20  1  0  0  0
 20 21  1  0  0  0
M  END
>  <Entry>
183

>  <title>
13-6784

>  <rigid docking scores>
-18.2

>  <InChIKey>
QVGDNLHWKMBSQS-UHFFFAOYSA-N

>  <Mcule>
MCULE-5472015740

$$$$
atoms 22 bonds 24
dotmatics
mol io
 22 24  0  0  0  0  0  0  0  0999 V2000
    0.7465    3.9871    0.0000 C   0  0  0  0  0  0  0  0  0  0  0  0
    1.5735    3.9871    0.0000 C   0  0  0  0  0  0  0  0  0  0  0  0
    2.0596    4.6562    0.0000 N   0  0  0  0  0  0  0  0  0  0  0  0
    2.8461    4.4006    0.0000 O   0  0  0  0  0  0  0  0  0  0  0  0
    2.8461    3.5736    0.0000 C   0  0  0  0  0  0  0  0  0  0  0  0
    2.0596    3.3180    0.0000 C   0  0  0  0  0  0  0  0  0  0  0  0
    1.8040    2.5315    0.0000 C   0  0  0  0  0  0  0  0  0  0  0  0
    2.3574    1.9169    0.0000 O   0  0  0  0  0  0  0  0  0  0  0  0
    0.9951    2.3596    0.0000 N   0  0  0  0  0  0  0  0  0  0  0  0
    0.4417    2.9742    0.0000 C   0  0  0  0  0  0  0  0  0  0  0  0
    0.7395    1.5730    0.0000 C   0  0  0  0  0  0  0  0  0  0  0  0
    1.2929    0.9585    0.0000 C   0  0  0  0  0  0  0  0  0  0  0  0
    1.0373    0.1719    0.0000 C   0  0  0  0  0  0  0  0  0  0  0  0
    0.2284   -0.0000    0.0000 C   0  0  0  0  0  0  0  0  0  0  0  0
   -0.3250    0.6146    0.0000 N   0  0  0  0  0  0  0  0  0  0  0  0
   -1.1339    0.4426    0.0000 C   0  0  0  0  0  0  0  0  0  0  0  0
   -1.6873    1.0572    0.0000 C   0  0  0  0  0  0  0  0  0  0  0  0
   -2.5097    0.9708    0.0000 C   0  0  0  0  0  0  0  0  0  0  0  0
   -2.8461    1.7263    0.0000 C   0  0  0  0  0  0  0  0  0  0  0  0
   -2.2315    2.2796    0.0000 O   0  0  0  0  0  0  0  0  0  0  0  0
   -1.5153    1.8661    0.0000 N   0  0  0  0  0  0  0  0  0  0  0  0
   -0.0694    1.4011    0.0000 C   0  0  0  0  0  0  0  0  0  0  0  0
  1  2  1  0  0  0
  2  6  1  0  0  0
  2  3  2  0  0  0
  3  4  1  0  0  0
  4  5  1  0  0  0
  5  6  2  0  0  0
  6  7  1  0  0  0
  7  8  2  0  0  0
  7  9  1  0  0  0
  9 10  1  0  0  0
  9 11  1  0  0  0
 11 22  1  0  0  0
 11 12  1  0  0  0
 12 13  1  0  0  0
 13 14  1  0  0  0
 14 15  1  0  0  0
 15 16  1  0  0  0
 16 17  1  0  0  0
 17 21  2  0  0  0
 17 18  1  0  0  0
 18 19  2  0  0  0
 19 20  1  0  0  0
 20 21  1  0  0  0
 15 22  1  0  0  0
M  END
>  <Entry>
184

>  <title>
2-3250

>  <rigid docking scores>
-18.3151

>  <InChIKey>
QRJWXDGEIXKLSH-UHFFFAOYSA-N

$$$$
atoms 23 bonds 25
dotmatics
mol io
 23 25  0  0  0  0  0  0  0  0999 V2000
    2.9021   -3.0999    0.0000 C   0  0  0  0  0  0  0  0  0  0  0  0
    2.8962   -2.2729    0.0000 C   0  0  0  0  0  0  0  0  0  0  0  0
    3.6094   -1.8543    0.0000 O   0  0  0  0  0  0  0  0  0  0  0  0
    2.1771   -1.8645    0.0000 N   0  0  0  0  0  0  0  0  0  0  0  0
    1.4638   -2.2831    0.0000 C   0  0  0  0  0  0  0  0  0  0  0  0
    0.7447   -1.8748    0.0000 C   0  0  0  0  0  0  0  0  0  0  0  0
    0.7388   -1.0478    0.0000 C   0  0  0  0  0  0  0  0  0  0  0  0
    1.4520   -0.6292    0.0000 C   0  0  0  0  0  0  0  0  0  0  0  0
    1.4461    0.1978    0.0000 N   0  0  0  0  0  0  0  0  0  0  0  0
    2.1594    0.6164    0.0000 C   0  0  0  0  0  0  0  0  0  0  0  0
    2.8785    0.2080    0.0000 O   0  0  0  0  0  0  0  0  0  0  0  0
    2.1534    1.4434    0.0000 C   0  0  0  0  0  0  0  0  0  0  0  0
    2.8693    1.8575    0.0000 C   0  0  0  0  0  0  0  0  0  0  0  0
    2.8693    2.6858    0.0000 C   0  0  0  0  0  0  0  0  0  0  0  0
    3.5851    3.0999    0.0000 C   0  0  0  0  0  0  0  0  0  0  0  0
    2.1534    3.0999    0.0000 N   0  0  0  0  0  0  0  0  0  0  0  0
    1.4317    2.6858    0.0000 C   0  0  0  0  0  0  0  0  0  0  0  0
    0.7158    3.0999    0.0000 C   0  0  0  0  0  0  0  0  0  0  0  0
    0.0000    2.6858    0.0000 C   0  0  0  0  0  0  0  0  0  0  0  0
    0.0000    1.8575    0.0000 C   0  0  0  0  0  0  0  0  0  0  0  0
    0.7158    1.4434    0.0000 C   0  0  0  0  0  0  0  0  0  0  0  0
    1.4317    1.8575    0.0000 C   0  0  0  0  0  0  0  0  0  0  0  0
    2.1712   -1.0376    0.0000 C   0  0  0  0  0  0  0  0  0  0  0  0
  1  2  1  0  0  0
  2  3  2  0  0  0
  2  4  1  0  0  0
  4 23  1  0  0  0
  4  5  1  0  0  0
  5  6  1  0  0  0
  6  7  1  0  0  0
  7  8  1  0  0  0
  8  9  1  0  0  0
  9 10  1  0  0  0
 10 11  2  0  0  0
 10 12  1  0  0  0
 12 22  1  0  0  0
 12 13  2  0  0  0
 13 14  1  0  0  0
 14 15  1  0  0  0
 14 16  2  0  0  0
 16 17  1  0  0  0
 17 22  1  0  0  0
 17 18  2  0  0  0
 18 19  1  0  0  0
 19 20  2  0  0  0
 20 21  1  0  0  0
 21 22  2  0  0  0
  8 23  1  0  0  0
M  END
>  <Entry>
185

>  <title>
2-3312

>  <rigid docking scores>
-18.7813

>  <InChIKey>
BECIYWNECFVRDD-UHFFFAOYSA-N

$$$$
atoms 22 bonds 23
dotmatics
mol io
 22 23  0  0  0  0  0  0  0  0999 V2000
   -3.1012    2.1486    0.0000 C   0  0  0  0  0  0  0  0  0  0  0  0
   -2.6878    1.4324    0.0000 O   0  0  0  0  0  0  0  0  0  0  0  0
   -1.8607    1.4324    0.0000 C   0  0  0  0  0  0  0  0  0  0  0  0
   -1.4473    2.1486    0.0000 C   0  0  0  0  0  0  0  0  0  0  0  0
   -0.6202    2.1486    0.0000 C   0  0  0  0  0  0  0  0  0  0  0  0
   -0.2068    1.4324    0.0000 C   0  0  0  0  0  0  0  0  0  0  0  0
    0.6202    1.4324    0.0000 S   0  0  0  0  0  0  0  0  0  0  0  0
    0.6202    0.6054    0.0000 O   0  0  0  0  0  0  0  0  0  0  0  0
    0.6202    2.2594    0.0000 O   0  0  0  0  0  0  0  0  0  0  0  0
    1.4473    1.4324    0.0000 N   0  0  0  0  0  0  0  0  0  0  0  0
    1.8607    2.1486    0.0000 C   0  0  0  0  0  0  0  0  0  0  0  0
    1.4473    2.8648    0.0000 N   0  0  0  0  0  0  0  0  0  0  0  0
    1.8607    3.5810    0.0000 N   0  0  0  0  0  0  0  0  0  0  0  0
    2.6878    3.5810    0.0000 C   0  0  0  0  0  0  0  0  0  0  0  0
    3.1012    4.2972    0.0000 O   0  0  0  0  0  0  0  0  0  0  0  0
    3.1012    2.8648    0.0000 C   0  0  0  0  0  0  0  0  0  0  0  0
    2.6878    2.1486    0.0000 C   0  0  0  0  0  0  0  0  0  0  0  0
    3.1012    1.4324    0.0000 C   0  0  0  0  0  0  0  0  0  0  0  0
   -0.6202    0.7162    0.0000 C   0  0  0  0  0  0  0  0  0  0  0  0
   -1.4473    0.7162    0.0000 C   0  0  0  0  0  0  0  0  0  0  0  0
   -1.8607    0.0000    0.0000 O   0  0  0  0  0  0  0  0  0  0  0  0
   -2.6878    0.0000    0.0000 C   0  0  0  0  0  0  0  0  0  0  0  0
  1  2  1  0  0  0
  2  3  1  0  0  0
  3 20  1  0  0  0
  3  4  2  0  0  0
  4  5  1  0  0  0
  5  6  2  0  0  0
  6  7  1  0  0  0
  7  8  2  0  0  0
  7  9  2  0  0  0
  7 10  1  0  0  0
 10 11  1  0  0  0
 11 17  1  0  0  0
 11 12  2  0  0  0
 12 13  1  0  0  0
 13 14  1  0  0  0
 14 15  2  0  0  0
 14 16  1  0  0  0
 16 17  2  0  0  0
 17 18  1  0  0  0
  6 19  1  0  0  0
 19 20  2  0  0  0
 20 21  1  0  0  0
 21 22  1  0  0  0
M  END
>  <Entry>
186

>  <title>
13-7786

>  <rigid docking scores>
-15.8257

>  <InChIKey>
AFCYHSHFEWOKRQ-UHFFFAOYSA-N

$$$$
atoms 19 bonds 20
dotmatics
mol io
 19 20  0  0  0  0  0  0  0  0999 V2000
    5.7296    1.2405    0.0000 C   0  0  0  0  0  0  0  0  0  0  0  0
    5.7296    0.4135    0.0000 C   0  0  0  0  0  0  0  0  0  0  0  0
    6.4458    0.0000    0.0000 C   0  0  0  0  0  0  0  0  0  0  0  0
    6.4458   -0.8270    0.0000 C   0  0  0  0  0  0  0  0  0  0  0  0
    7.1620   -1.2405    0.0000 Cl  0  0  0  0  0  0  0  0  0  0  0  0
    5.7296   -1.2405    0.0000 C   0  0  0  0  0  0  0  0  0  0  0  0
    5.0134   -0.8270    0.0000 C   0  0  0  0  0  0  0  0  0  0  0  0
    5.0134    0.0000    0.0000 C   0  0  0  0  0  0  0  0  0  0  0  0
    4.2972    0.4135    0.0000 N   0  0  0  0  0  0  0  0  0  0  0  0
    3.5810    0.0000    0.0000 C   0  0  0  0  0  0  0  0  0  0  0  0
    3.5810   -0.8270    0.0000 O   0  0  0  0  0  0  0  0  0  0  0  0
    2.8648    0.4135    0.0000 C   0  0  0  0  0  0  0  0  0  0  0  0
    2.1486   -0.0000    0.0000 N   0  0  0  0  0  0  0  0  0  0  0  0
    1.4324    0.4135    0.0000 C   0  0  0  0  0  0  0  0  0  0  0  0
    0.7162    0.0000    0.0000 C   0  0  0  0  0  0  0  0  0  0  0  0
    0.7162   -0.8270    0.0000 N   0  0  0  0  0  0  0  0  0  0  0  0
    0.0000   -1.2405    0.0000 C   0  0  0  0  0  0  0  0  0  0  0  0
    1.4324   -1.2405    0.0000 C   0  0  0  0  0  0  0  0  0  0  0  0
    2.1486   -0.8270    0.0000 C   0  0  0  0  0  0  0  0  0  0  0  0
  1  2  1  0  0  0
  2  8  1  0  0  0
  2  3  2  0  0  0
  3  4  1  0  0  0
  4  5  1  0  0  0
  4  6  2  0  0  0
  6  7  1  0  0  0
  7  8  2  0  0  0
  8  9  1  0  0  0
  9 10  1  0  0  0
 10 11  2  0  0  0
 10 12  1  0  0  0
 12 13  1  0  0  0
 13 19  1  0  0  0
 13 14  1  0  0  0
 14 15  1  0  0  0
 15 16  1  0  0  0
 16 17  1  0  0  0
 16 18  1  0  0  0
 18 19  1  0  0  0
M  END
>  <Entry>
187

>  <title>
13-7988

>  <rigid docking scores>
-15.3866

>  <InChIKey>
WWZXVKQTENYPHX-UHFFFAOYSA-N

>  <ChEMBL>
CHEMBL4575713

>  <ZINC>
ZINC000020052161

>  <eMolecules>
1543532

>  <Pubchem>
6457974

>  <Mcule>
MCULE-4300473641

>  <MolPort>
MolPort-002-024-211

$$$$
atoms 21 bonds 23
dotmatics
mol io
 21 23  0  0  0  0  0  0  0  0999 V2000
    1.1549    3.7903    0.0000 Cl  0  0  0  0  0  0  0  0  0  0  0  0
    1.9819    3.7903    0.0000 C   0  0  0  0  0  0  0  0  0  0  0  0
    2.3954    4.5065    0.0000 C   0  0  0  0  0  0  0  0  0  0  0  0
    3.2224    4.5065    0.0000 C   0  0  0  0  0  0  0  0  0  0  0  0
    3.6359    3.7903    0.0000 C   0  0  0  0  0  0  0  0  0  0  0  0
    3.2224    3.0741    0.0000 C   0  0  0  0  0  0  0  0  0  0  0  0
    2.3954    3.0741    0.0000 C   0  0  0  0  0  0  0  0  0  0  0  0
    1.9819    2.3579    0.0000 C   0  0  0  0  0  0  0  0  0  0  0  0
    1.1549    2.3579    0.0000 N   0  0  0  0  0  0  0  0  0  0  0  0
    0.6688    1.6888    0.0000 C   0  0  0  0  0  0  0  0  0  0  0  0
   -0.1177    1.9444    0.0000 C   0  0  0  0  0  0  0  0  0  0  0  0
   -0.7868    1.4583    0.0000 C   0  0  0  0  0  0  0  0  0  0  0  0
   -1.5423    1.7947    0.0000 N   0  0  0  0  0  0  0  0  0  0  0  0
   -2.2113    1.3086    0.0000 C   0  0  0  0  0  0  0  0  0  0  0  0
   -2.1249    0.4861    0.0000 C   0  0  0  0  0  0  0  0  0  0  0  0
   -2.7940    0.0000    0.0000 C   0  0  0  0  0  0  0  0  0  0  0  0
   -3.5495    0.3364    0.0000 C   0  0  0  0  0  0  0  0  0  0  0  0
   -3.6359    1.1588    0.0000 C   0  0  0  0  0  0  0  0  0  0  0  0
   -2.9668    1.6449    0.0000 N   0  0  0  0  0  0  0  0  0  0  0  0
   -0.1177    2.7714    0.0000 N   0  0  0  0  0  0  0  0  0  0  0  0
    0.6688    3.0270    0.0000 N   0  0  0  0  0  0  0  0  0  0  0  0
  1  2  1  0  0  0
  2  7  1  0  0  0
  2  3  2  0  0  0
  3  4  1  0  0  0
  4  5  2  0  0  0
  5  6  1  0  0  0
  6  7  2  0  0  0
  7  8  1  0  0  0
  8  9  1  0  0  0
  9 21  1  0  0  0
  9 10  1  0  0  0
 10 11  2  0  0  0
 11 12  1  0  0  0
 12 13  1  0  0  0
 13 14  1  0  0  0
 14 19  1  0  0  0
 14 15  2  0  0  0
 15 16  1  0  0  0
 16 17  2  0  0  0
 17 18  1  0  0  0
 18 19  2  0  0  0
 11 20  1  0  0  0
 20 21  2  0  0  0
M  END
>  <Entry>
188

>  <title>
13-7992

>  <rigid docking scores>
-16.1766

>  <InChIKey>
HYZCCHYFTWMZLI-UHFFFAOYSA-N

$$$$
atoms 18 bonds 20
dotmatics
mol io
 18 20  0  0  0  0  0  0  0  0999 V2000
    2.1003    0.3976    0.0000 O   0  0  0  0  0  0  0  0  0  0  0  0
    1.3838   -0.0153    0.0000 C   0  0  0  0  0  0  0  0  0  0  0  0
    1.3830   -0.8423    0.0000 N   0  0  0  0  0  0  0  0  0  0  0  0
    2.0989   -1.2564    0.0000 C   0  0  0  0  0  0  0  0  0  0  0  0
    2.0989   -2.0847    0.0000 C   0  0  0  0  0  0  0  0  0  0  0  0
    2.8147   -2.4988    0.0000 C   0  0  0  0  0  0  0  0  0  0  0  0
    3.5306   -2.0847    0.0000 C   0  0  0  0  0  0  0  0  0  0  0  0
    3.5306   -1.2564    0.0000 C   0  0  0  0  0  0  0  0  0  0  0  0
    2.8147   -0.8423    0.0000 C   0  0  0  0  0  0  0  0  0  0  0  0
    4.3174   -1.0020    0.0000 C   0  0  0  0  0  0  0  0  0  0  0  0
    4.8025   -1.6706    0.0000 C   0  0  0  0  0  0  0  0  0  0  0  0
    4.3174   -2.3391    0.0000 C   0  0  0  0  0  0  0  0  0  0  0  0
    0.6679    0.3988    0.0000 N   0  0  0  0  0  0  0  0  0  0  0  0
    0.6686    1.2258    0.0000 C   0  0  0  0  0  0  0  0  0  0  0  0
    0.0000    1.7125    0.0000 N   0  0  0  0  0  0  0  0  0  0  0  0
    0.2562    2.4988    0.0000 N   0  0  0  0  0  0  0  0  0  0  0  0
    1.0832    2.4981    0.0000 C   0  0  0  0  0  0  0  0  0  0  0  0
    1.3381    1.7113    0.0000 S   0  0  0  0  0  0  0  0  0  0  0  0
  1  2  2  0  0  0
  2  3  1  0  0  0
  3  4  1  0  0  0
  4  9  1  0  0  0
  4  5  2  0  0  0
  5  6  1  0  0  0
  6  7  2  0  0  0
  7 12  1  0  0  0
  7  8  1  0  0  0
  8  9  2  0  0  0
  8 10  1  0  0  0
 10 11  1  0  0  0
 11 12  1  0  0  0
  2 13  1  0  0  0
 13 14  1  0  0  0
 14 18  1  0  0  0
 14 15  2  0  0  0
 15 16  1  0  0  0
 16 17  2  0  0  0
 17 18  1  0  0  0
M  END
>  <Entry>
189

>  <title>
13-8082

>  <rigid docking scores>
-17.8617

>  <InChIKey>
CPOKLYQPHPCORR-UHFFFAOYSA-N

$$$$
atoms 20 bonds 22
dotmatics
mol io
 20 22  0  0  0  0  0  0  0  0999 V2000
    3.7284    1.4320    0.0000 O   0  0  0  0  0  0  0  0  0  0  0  0
    4.1412    0.7155    0.0000 C   0  0  0  0  0  0  0  0  0  0  0  0
    4.9682    0.7148    0.0000 C   0  0  0  0  0  0  0  0  0  0  0  0
    5.4549    1.3834    0.0000 N   0  0  0  0  0  0  0  0  0  0  0  0
    6.2412    1.1272    0.0000 C   0  0  0  0  0  0  0  0  0  0  0  0
    6.2405    0.3002    0.0000 N   0  0  0  0  0  0  0  0  0  0  0  0
    5.4538    0.0453    0.0000 N   0  0  0  0  0  0  0  0  0  0  0  0
    3.7271   -0.0004    0.0000 N   0  0  0  0  0  0  0  0  0  0  0  0
    4.1412   -0.7162    0.0000 C   0  0  0  0  0  0  0  0  0  0  0  0
    3.7271   -1.4320    0.0000 C   0  0  0  0  0  0  0  0  0  0  0  0
    2.8989   -1.4320    0.0000 C   0  0  0  0  0  0  0  0  0  0  0  0
    2.4847   -0.7162    0.0000 C   0  0  0  0  0  0  0  0  0  0  0  0
    1.6565   -0.7162    0.0000 C   0  0  0  0  0  0  0  0  0  0  0  0
    1.2424   -1.4320    0.0000 C   0  0  0  0  0  0  0  0  0  0  0  0
    0.4141   -1.4320    0.0000 C   0  0  0  0  0  0  0  0  0  0  0  0
    0.0000   -0.7162    0.0000 C   0  0  0  0  0  0  0  0  0  0  0  0
    0.4141   -0.0004    0.0000 C   0  0  0  0  0  0  0  0  0  0  0  0
    0.0000    0.7155    0.0000 O   0  0  0  0  0  0  0  0  0  0  0  0
    1.2424   -0.0004    0.0000 N   0  0  0  0  0  0  0  0  0  0  0  0
    2.8989   -0.0004    0.0000 C   0  0  0  0  0  0  0  0  0  0  0  0
  1  2  2  0  0  0
  2  3  1  0  0  0
  3  7  2  0  0  0
  3  4  1  0  0  0
  4  5  2  0  0  0
  5  6  1  0  0  0
  6  7  1  0  0  0
  2  8  1  0  0  0
  8 20  1  0  0  0
  8  9  1  0  0  0
  9 10  1  0  0  0
 10 11  1  0  0  0
 11 12  1  0  0  0
 12 13  1  0  0  0
 13 19  1  0  0  0
 13 14  2  0  0  0
 14 15  1  0  0  0
 15 16  2  0  0  0
 16 17  1  0  0  0
 17 18  2  0  0  0
 17 19  1  0  0  0
 12 20  1  0  0  0
M  END
>  <Entry>
190

>  <title>
13-8501

>  <rigid docking scores>
-16.5235

>  <InChIKey>
AZBALKRUWVZLHV-UHFFFAOYSA-N

$$$$
atoms 18 bonds 19
dotmatics
mol io
 18 19  0  0  0  0  0  0  0  0999 V2000
    0.0000   -1.4971    0.0000 C   0  0  0  0  0  0  0  0  0  0  0  0
    0.8223   -1.5850    0.0000 C   0  0  0  0  0  0  0  0  0  0  0  0
    1.3096   -0.9169    0.0000 N   0  0  0  0  0  0  0  0  0  0  0  0
    2.1319   -1.0048    0.0000 C   0  0  0  0  0  0  0  0  0  0  0  0
    2.4669   -1.7609    0.0000 O   0  0  0  0  0  0  0  0  0  0  0  0
    2.6192   -0.3366    0.0000 C   0  0  0  0  0  0  0  0  0  0  0  0
    3.4450   -0.3366    0.0000 C   0  0  0  0  0  0  0  0  0  0  0  0
    3.6987    0.4479    0.0000 C   0  0  0  0  0  0  0  0  0  0  0  0
    4.4862    0.7003    0.0000 C   0  0  0  0  0  0  0  0  0  0  0  0
    4.6614    1.5085    0.0000 C   0  0  0  0  0  0  0  0  0  0  0  0
    5.4489    1.7609    0.0000 C   0  0  0  0  0  0  0  0  0  0  0  0
    6.0613    1.2051    0.0000 C   0  0  0  0  0  0  0  0  0  0  0  0
    6.8488    1.4575    0.0000 O   0  0  0  0  0  0  0  0  0  0  0  0
    5.8861    0.3969    0.0000 C   0  0  0  0  0  0  0  0  0  0  0  0
    6.4985   -0.1590    0.0000 Br  0  0  0  0  0  0  0  0  0  0  0  0
    5.0986    0.1444    0.0000 C   0  0  0  0  0  0  0  0  0  0  0  0
    3.0321    0.9374    0.0000 N   0  0  0  0  0  0  0  0  0  0  0  0
    2.3656    0.4479    0.0000 N   0  0  0  0  0  0  0  0  0  0  0  0
  1  2  1  0  0  0
  2  3  1  0  0  0
  3  4  1  0  0  0
  4  5  2  0  0  0
  4  6  1  0  0  0
  6 18  2  0  0  0
  6  7  1  0  0  0
  7  8  2  0  0  0
  8  9  1  0  0  0
  9 16  1  0  0  0
  9 10  2  0  0  0
 10 11  1  0  0  0
 11 12  2  0  0  0
 12 13  1  0  0  0
 12 14  1  0  0  0
 14 15  1  0  0  0
 14 16  2  0  0  0
  8 17  1  0  0  0
 17 18  1  0  0  0
M  END
>  <Entry>
191

>  <title>
13-8710

>  <rigid docking scores>
-16.9366

>  <InChIKey>
BMXLIKAVWPRQQY-UHFFFAOYSA-N

$$$$
atoms 20 bonds 22
dotmatics
mol io
 20 22  0  0  0  0  0  0  0  0999 V2000
    3.9950    2.2480    0.0000 C   0  0  0  0  0  0  0  0  0  0  0  0
    3.1868    2.0728    0.0000 C   0  0  0  0  0  0  0  0  0  0  0  0
    2.9344    1.2853    0.0000 N   0  0  0  0  0  0  0  0  0  0  0  0
    3.4254    0.6168    0.0000 C   0  0  0  0  0  0  0  0  0  0  0  0
    4.2524    0.6168    0.0000 C   0  0  0  0  0  0  0  0  0  0  0  0
    4.6659   -0.0994    0.0000 N   0  0  0  0  0  0  0  0  0  0  0  0
    5.4929   -0.0994    0.0000 C   0  0  0  0  0  0  0  0  0  0  0  0
    5.9064   -0.8156    0.0000 C   0  0  0  0  0  0  0  0  0  0  0  0
    5.4929   -1.5318    0.0000 N   0  0  0  0  0  0  0  0  0  0  0  0
    5.9064   -2.2480    0.0000 C   0  0  0  0  0  0  0  0  0  0  0  0
    4.6659   -1.5318    0.0000 C   0  0  0  0  0  0  0  0  0  0  0  0
    4.2524   -0.8156    0.0000 C   0  0  0  0  0  0  0  0  0  0  0  0
    2.9344   -0.0517    0.0000 N   0  0  0  0  0  0  0  0  0  0  0  0
    2.1475    0.2027    0.0000 C   0  0  0  0  0  0  0  0  0  0  0  0
    1.4317   -0.2115    0.0000 C   0  0  0  0  0  0  0  0  0  0  0  0
    0.7158    0.2027    0.0000 C   0  0  0  0  0  0  0  0  0  0  0  0
    0.7158    1.0309    0.0000 C   0  0  0  0  0  0  0  0  0  0  0  0
    0.0000    1.4450    0.0000 F   0  0  0  0  0  0  0  0  0  0  0  0
    1.4317    1.4450    0.0000 C   0  0  0  0  0  0  0  0  0  0  0  0
    2.1475    1.0309    0.0000 C   0  0  0  0  0  0  0  0  0  0  0  0
  1  2  1  0  0  0
  2  3  1  0  0  0
  3 20  1  0  0  0
  3  4  1  0  0  0
  4  5  1  0  0  0
  5  6  1  0  0  0
  6 12  1  0  0  0
  6  7  1  0  0  0
  7  8  1  0  0  0
  8  9  1  0  0  0
  9 10  1  0  0  0
  9 11  1  0  0  0
 11 12  1  0  0  0
  4 13  2  0  0  0
 13 14  1  0  0  0
 14 20  1  0  0  0
 14 15  2  0  0  0
 15 16  1  0  0  0
 16 17  2  0  0  0
 17 18  1  0  0  0
 17 19  1  0  0  0
 19 20  2  0  0  0
M  END
>  <Entry>
192

>  <title>
13-8891

>  <rigid docking scores>
-16.4235

>  <InChIKey>
FAURAUGPCXZKFD-UHFFFAOYSA-N

$$$$
atoms 19 bonds 20
dotmatics
mol io
 19 20  0  0  0  0  0  0  0  0999 V2000
    7.8823    0.0031    0.0000 C   0  0  0  0  0  0  0  0  0  0  0  0
    7.1658    0.4160    0.0000 N   0  0  0  0  0  0  0  0  0  0  0  0
    7.1651    1.2430    0.0000 C   0  0  0  0  0  0  0  0  0  0  0  0
    6.4499    0.0019    0.0000 C   0  0  0  0  0  0  0  0  0  0  0  0
    5.7334    0.4147    0.0000 C   0  0  0  0  0  0  0  0  0  0  0  0
    5.0175    0.0006    0.0000 N   0  0  0  0  0  0  0  0  0  0  0  0
    4.3010    0.4135    0.0000 C   0  0  0  0  0  0  0  0  0  0  0  0
    4.3003    1.2405    0.0000 O   0  0  0  0  0  0  0  0  0  0  0  0
    3.5851   -0.0006    0.0000 C   0  0  0  0  0  0  0  0  0  0  0  0
    3.5851   -0.8289    0.0000 C   0  0  0  0  0  0  0  0  0  0  0  0
    2.8693   -1.2430    0.0000 C   0  0  0  0  0  0  0  0  0  0  0  0
    2.1475   -0.8289    0.0000 C   0  0  0  0  0  0  0  0  0  0  0  0
    1.4317   -1.2430    0.0000 C   0  0  0  0  0  0  0  0  0  0  0  0
    0.7158   -0.8289    0.0000 C   0  0  0  0  0  0  0  0  0  0  0  0
    0.7158   -0.0006    0.0000 C   0  0  0  0  0  0  0  0  0  0  0  0
    0.0000    0.4135    0.0000 Cl  0  0  0  0  0  0  0  0  0  0  0  0
    1.4317    0.4135    0.0000 C   0  0  0  0  0  0  0  0  0  0  0  0
    2.1475   -0.0006    0.0000 C   0  0  0  0  0  0  0  0  0  0  0  0
    2.8693    0.4135    0.0000 N   0  0  0  0  0  0  0  0  0  0  0  0
  1  2  1  0  0  0
  2  3  1  0  0  0
  2  4  1  0  0  0
  4  5  1  0  0  0
  5  6  1  0  0  0
  6  7  1  0  0  0
  7  8  2  0  0  0
  7  9  1  0  0  0
  9 19  1  0  0  0
  9 10  2  0  0  0
 10 11  1  0  0  0
 11 12  2  0  0  0
 12 18  1  0  0  0
 12 13  1  0  0  0
 13 14  2  0  0  0
 14 15  1  0  0  0
 15 16  1  0  0  0
 15 17  2  0  0  0
 17 18  1  0  0  0
 18 19  2  0  0  0
M  END
>  <Entry>
193

>  <title>
13-8900

>  <rigid docking scores>
-15.9939

>  <InChIKey>
BJGLRSRPMBCQMR-UHFFFAOYSA-N

>  <Pubchem>
110490277

>  <Mcule>
MCULE-6664613708

$$$$
atoms 19 bonds 21
dotmatics
mol io
 19 21  0  0  0  0  0  0  0  0999 V2000
    2.1475    0.2071    0.0000 O   0  0  0  0  0  0  0  0  0  0  0  0
    1.4310   -0.2058    0.0000 C   0  0  0  0  0  0  0  0  0  0  0  0
    0.7151    0.2083    0.0000 N   0  0  0  0  0  0  0  0  0  0  0  0
    0.7158    1.0353    0.0000 C   0  0  0  0  0  0  0  0  0  0  0  0
    0.0000    1.4494    0.0000 C   0  0  0  0  0  0  0  0  0  0  0  0
    0.0007    2.2764    0.0000 C   0  0  0  0  0  0  0  0  0  0  0  0
    0.7173    2.6893    0.0000 C   0  0  0  0  0  0  0  0  0  0  0  0
    1.4331    2.2752    0.0000 N   0  0  0  0  0  0  0  0  0  0  0  0
    1.4324    1.4482    0.0000 C   0  0  0  0  0  0  0  0  0  0  0  0
    1.4302   -1.0328    0.0000 N   0  0  0  0  0  0  0  0  0  0  0  0
    2.1461   -1.4469    0.0000 C   0  0  0  0  0  0  0  0  0  0  0  0
    2.1461   -2.2752    0.0000 C   0  0  0  0  0  0  0  0  0  0  0  0
    2.8619   -2.6893    0.0000 C   0  0  0  0  0  0  0  0  0  0  0  0
    3.5778   -2.2752    0.0000 C   0  0  0  0  0  0  0  0  0  0  0  0
    4.3646   -2.5296    0.0000 N   0  0  0  0  0  0  0  0  0  0  0  0
    4.8556   -1.8611    0.0000 C   0  0  0  0  0  0  0  0  0  0  0  0
    4.3646   -1.1925    0.0000 N   0  0  0  0  0  0  0  0  0  0  0  0
    3.5778   -1.4469    0.0000 N   0  0  0  0  0  0  0  0  0  0  0  0
    2.8619   -1.0328    0.0000 C   0  0  0  0  0  0  0  0  0  0  0  0
  1  2  2  0  0  0
  2  3  1  0  0  0
  3  4  1  0  0  0
  4  9  1  0  0  0
  4  5  2  0  0  0
  5  6  1  0  0  0
  6  7  2  0  0  0
  7  8  1  0  0  0
  8  9  2  0  0  0
  2 10  1  0  0  0
 10 11  1  0  0  0
 11 19  1  0  0  0
 11 12  1  0  0  0
 12 13  1  0  0  0
 13 14  1  0  0  0
 14 18  1  0  0  0
 14 15  2  0  0  0
 15 16  1  0  0  0
 16 17  2  0  0  0
 17 18  1  0  0  0
 18 19  1  0  0  0
M  END
>  <Entry>
194

>  <title>
13-9210

>  <rigid docking scores>
-16.4531

>  <InChIKey>
ASKCNFFXQNNUHC-UHFFFAOYSA-N

>  <Mcule>
MCULE-7725248883

$$$$
atoms 23 bonds 25
dotmatics
mol io
 23 25  0  0  0  0  0  0  0  0999 V2000
    5.1316    2.8710    0.0000 C   0  0  0  0  0  0  0  0  0  0  0  0
    5.1316    2.0440    0.0000 C   0  0  0  0  0  0  0  0  0  0  0  0
    5.8478    1.6305    0.0000 C   0  0  0  0  0  0  0  0  0  0  0  0
    5.8478    0.8035    0.0000 C   0  0  0  0  0  0  0  0  0  0  0  0
    5.1316    0.3900    0.0000 C   0  0  0  0  0  0  0  0  0  0  0  0
    4.4154    0.8035    0.0000 C   0  0  0  0  0  0  0  0  0  0  0  0
    3.6992    0.3900    0.0000 N   0  0  0  0  0  0  0  0  0  0  0  0
    2.9437    0.7263    0.0000 N   0  0  0  0  0  0  0  0  0  0  0  0
    2.3903    0.1117    0.0000 C   0  0  0  0  0  0  0  0  0  0  0  0
    1.5678    0.1982    0.0000 C   0  0  0  0  0  0  0  0  0  0  0  0
    2.8038   -0.6045    0.0000 N   0  0  0  0  0  0  0  0  0  0  0  0
    2.4674   -1.3600    0.0000 C   0  0  0  0  0  0  0  0  0  0  0  0
    1.6449   -1.4464    0.0000 C   0  0  0  0  0  0  0  0  0  0  0  0
    1.1588   -0.7773    0.0000 C   0  0  0  0  0  0  0  0  0  0  0  0
    0.3364   -0.8638    0.0000 C   0  0  0  0  0  0  0  0  0  0  0  0
    0.0000   -1.6193    0.0000 C   0  0  0  0  0  0  0  0  0  0  0  0
    0.4861   -2.2883    0.0000 C   0  0  0  0  0  0  0  0  0  0  0  0
    1.3086   -2.2019    0.0000 C   0  0  0  0  0  0  0  0  0  0  0  0
    1.7947   -2.8710    0.0000 C   0  0  0  0  0  0  0  0  0  0  0  0
    2.6171   -2.7845    0.0000 O   0  0  0  0  0  0  0  0  0  0  0  0
    3.6127   -0.4325    0.0000 C   0  0  0  0  0  0  0  0  0  0  0  0
    4.2273   -0.9859    0.0000 O   0  0  0  0  0  0  0  0  0  0  0  0
    4.4154    1.6305    0.0000 C   0  0  0  0  0  0  0  0  0  0  0  0
  1  2  1  0  0  0
  2 23  1  0  0  0
  2  3  2  0  0  0
  3  4  1  0  0  0
  4  5  2  0  0  0
  5  6  1  0  0  0
  6  7  1  0  0  0
  7 21  1  0  0  0
  7  8  1  0  0  0
  8  9  2  0  0  0
  9 10  1  0  0  0
  9 11  1  0  0  0
 11 12  1  0  0  0
 12 13  1  0  0  0
 13 18  1  0  0  0
 13 14  2  0  0  0
 14 15  1  0  0  0
 15 16  2  0  0  0
 16 17  1  0  0  0
 17 18  2  0  0  0
 18 19  1  0  0  0
 19 20  1  0  0  0
 11 21  1  0  0  0
 21 22  2  0  0  0
  6 23  2  0  0  0
M  END
>  <Entry>
195

>  <title>
13-9467

>  <rigid docking scores>
-16.5737

>  <InChIKey>
ZUUPZUGWMPQZLR-UHFFFAOYSA-N

$$$$
atoms 16 bonds 17
dotmatics
mol io
 16 17  0  0  0  0  0  0  0  0999 V2000
   -1.2566    0.6691    0.0000 O   0  0  0  0  0  0  0  0  0  0  0  0
   -0.8431    1.3853    0.0000 C   0  0  0  0  0  0  0  0  0  0  0  0
   -0.0161    1.3853    0.0000 N   0  0  0  0  0  0  0  0  0  0  0  0
    0.3974    0.6691    0.0000 C   0  0  0  0  0  0  0  0  0  0  0  0
    1.2244    0.6691    0.0000 C   0  0  0  0  0  0  0  0  0  0  0  0
    1.7105    1.3381    0.0000 C   0  0  0  0  0  0  0  0  0  0  0  0
    2.4971    1.0826    0.0000 C   0  0  0  0  0  0  0  0  0  0  0  0
    2.4971    0.2556    0.0000 C   0  0  0  0  0  0  0  0  0  0  0  0
    1.7105   -0.0000    0.0000 O   0  0  0  0  0  0  0  0  0  0  0  0
   -1.2566    2.1015    0.0000 C   0  0  0  0  0  0  0  0  0  0  0  0
   -2.0836    2.1015    0.0000 C   0  0  0  0  0  0  0  0  0  0  0  0
   -2.4971    2.8177    0.0000 N   0  0  0  0  0  0  0  0  0  0  0  0
   -2.0836    3.5339    0.0000 C   0  0  0  0  0  0  0  0  0  0  0  0
   -1.2566    3.5339    0.0000 C   0  0  0  0  0  0  0  0  0  0  0  0
   -0.8431    4.2501    0.0000 Br  0  0  0  0  0  0  0  0  0  0  0  0
   -0.8431    2.8177    0.0000 C   0  0  0  0  0  0  0  0  0  0  0  0
  1  2  2  0  0  0
  2  3  1  0  0  0
  3  4  1  0  0  0
  4  5  1  0  0  0
  5  9  1  0  0  0
  5  6  1  0  0  0
  6  7  1  0  0  0
  7  8  1  0  0  0
  8  9  1  0  0  0
  2 10  1  0  0  0
 10 16  1  0  0  0
 10 11  2  0  0  0
 11 12  1  0  0  0
 12 13  2  0  0  0
 13 14  1  0  0  0
 14 15  1  0  0  0
 14 16  2  0  0  0
M  END
>  <Entry>
196

>  <title>
13-9795

>  <rigid docking scores>
-15.3183

>  <InChIKey>
WJOXRWRPKFTQQX-UHFFFAOYSA-N

>  <ChEMBL>
CHEMBL1611414

>  <eMolecules>
36727004

>  <Pubchem>
4884775

>  <Mcule>
MCULE-4528079820

>  <MolPort>
MolPort-004-078-635

$$$$
atoms 21 bonds 23
dotmatics
mol io
 21 23  0  0  0  0  0  0  0  0999 V2000
   -3.1398    2.2082    0.0000 C   0  0  0  0  0  0  0  0  0  0  0  0
   -2.3128    2.2082    0.0000 C   0  0  0  0  0  0  0  0  0  0  0  0
   -1.8267    2.8772    0.0000 C   0  0  0  0  0  0  0  0  0  0  0  0
   -1.0401    2.6217    0.0000 C   0  0  0  0  0  0  0  0  0  0  0  0
   -0.3711    3.1078    0.0000 C   0  0  0  0  0  0  0  0  0  0  0  0
   -0.4575    3.9302    0.0000 O   0  0  0  0  0  0  0  0  0  0  0  0
    0.3844    2.7714    0.0000 N   0  0  0  0  0  0  0  0  0  0  0  0
    1.0535    3.2575    0.0000 C   0  0  0  0  0  0  0  0  0  0  0  0
    1.8090    2.9211    0.0000 C   0  0  0  0  0  0  0  0  0  0  0  0
    2.5252    3.3346    0.0000 C   0  0  0  0  0  0  0  0  0  0  0  0
    3.1398    2.7812    0.0000 C   0  0  0  0  0  0  0  0  0  0  0  0
    2.8034    2.0257    0.0000 C   0  0  0  0  0  0  0  0  0  0  0  0
    1.9809    2.1122    0.0000 O   0  0  0  0  0  0  0  0  0  0  0  0
   -1.0401    1.7947    0.0000 N   0  0  0  0  0  0  0  0  0  0  0  0
   -0.3711    1.3086    0.0000 C   0  0  0  0  0  0  0  0  0  0  0  0
    0.3844    1.6449    0.0000 C   0  0  0  0  0  0  0  0  0  0  0  0
    1.0535    1.1588    0.0000 C   0  0  0  0  0  0  0  0  0  0  0  0
    0.9670    0.3364    0.0000 C   0  0  0  0  0  0  0  0  0  0  0  0
    0.2115   -0.0000    0.0000 C   0  0  0  0  0  0  0  0  0  0  0  0
   -0.4575    0.4861    0.0000 C   0  0  0  0  0  0  0  0  0  0  0  0
   -1.8267    1.5391    0.0000 N   0  0  0  0  0  0  0  0  0  0  0  0
  1  2  1  0  0  0
  2 21  2  0  0  0
  2  3  1  0  0  0
  3  4  2  0  0  0
  4  5  1  0  0  0
  5  6  2  0  0  0
  5  7  1  0  0  0
  7  8  1  0  0  0
  8  9  1  0  0  0
  9 13  1  0  0  0
  9 10  1  0  0  0
 10 11  1  0  0  0
 11 12  1  0  0  0
 12 13  1  0  0  0
  4 14  1  0  0  0
 14 15  1  0  0  0
 15 20  1  0  0  0
 15 16  2  0  0  0
 16 17  1  0  0  0
 17 18  2  0  0  0
 18 19  1  0  0  0
 19 20  2  0  0  0
 14 21  1  0  0  0
M  END
>  <Entry>
197

>  <title>
14-122

>  <rigid docking scores>
-15.5581

>  <InChIKey>
YCJWIGYRFMTNKJ-UHFFFAOYSA-N

>  <ChEMBL>
CHEMBL1548775

>  <Pubchem>
5214846

$$$$
atoms 17 bonds 18
dotmatics
mol io
 17 18  0  0  0  0  0  0  0  0999 V2000
   -3.2299    0.6691    0.0000 C   0  0  0  0  0  0  0  0  0  0  0  0
   -2.4029    0.6691    0.0000 C   0  0  0  0  0  0  0  0  0  0  0  0
   -1.9168    1.3381    0.0000 N   0  0  0  0  0  0  0  0  0  0  0  0
   -1.1302    1.0826    0.0000 C   0  0  0  0  0  0  0  0  0  0  0  0
   -0.4612    1.5687    0.0000 C   0  0  0  0  0  0  0  0  0  0  0  0
    0.2943    1.2323    0.0000 C   0  0  0  0  0  0  0  0  0  0  0  0
    0.3808    0.4098    0.0000 O   0  0  0  0  0  0  0  0  0  0  0  0
    0.9634    1.7184    0.0000 N   0  0  0  0  0  0  0  0  0  0  0  0
    1.7189    1.3820    0.0000 C   0  0  0  0  0  0  0  0  0  0  0  0
    1.8053    0.5595    0.0000 C   0  0  0  0  0  0  0  0  0  0  0  0
    2.5608    0.2232    0.0000 C   0  0  0  0  0  0  0  0  0  0  0  0
    3.2299    0.7093    0.0000 C   0  0  0  0  0  0  0  0  0  0  0  0
    3.1434    1.5317    0.0000 N   0  0  0  0  0  0  0  0  0  0  0  0
    2.3879    1.8681    0.0000 C   0  0  0  0  0  0  0  0  0  0  0  0
    2.3015    2.6906    0.0000 Cl  0  0  0  0  0  0  0  0  0  0  0  0
   -1.1302    0.2556    0.0000 C   0  0  0  0  0  0  0  0  0  0  0  0
   -1.9168    0.0000    0.0000 S   0  0  0  0  0  0  0  0  0  0  0  0
  1  2  1  0  0  0
  2 17  1  0  0  0
  2  3  2  0  0  0
  3  4  1  0  0  0
  4  5  1  0  0  0
  5  6  1  0  0  0
  6  7  2  0  0  0
  6  8  1  0  0  0
  8  9  1  0  0  0
  9 14  1  0  0  0
  9 10  2  0  0  0
 10 11  1  0  0  0
 11 12  2  0  0  0
 12 13  1  0  0  0
 13 14  2  0  0  0
 14 15  1  0  0  0
  4 16  2  0  0  0
 16 17  1  0  0  0
M  END
>  <Entry>
198

>  <title>
14-196

>  <rigid docking scores>
-17.668

>  <InChIKey>
JTAVAXRSHMXILH-UHFFFAOYSA-N

>  <Mcule>
MCULE-6926205852

$$$$
atoms 19 bonds 20
dotmatics
mol io
 19 20  0  0  0  0  0  0  0  0999 V2000
   -3.5439    2.8177    0.0000 N   0  0  0  0  0  0  0  0  0  0  0  0
   -3.1304    2.1015    0.0000 C   0  0  0  0  0  0  0  0  0  0  0  0
   -3.5439    1.3853    0.0000 O   0  0  0  0  0  0  0  0  0  0  0  0
   -2.3034    2.1015    0.0000 C   0  0  0  0  0  0  0  0  0  0  0  0
   -1.8899    1.3853    0.0000 C   0  0  0  0  0  0  0  0  0  0  0  0
   -1.0629    1.3853    0.0000 C   0  0  0  0  0  0  0  0  0  0  0  0
   -0.6494    2.1015    0.0000 O   0  0  0  0  0  0  0  0  0  0  0  0
   -0.6494    0.6691    0.0000 N   0  0  0  0  0  0  0  0  0  0  0  0
    0.1776    0.6691    0.0000 C   0  0  0  0  0  0  0  0  0  0  0  0
    0.6637    1.3381    0.0000 N   0  0  0  0  0  0  0  0  0  0  0  0
    1.4503    1.0826    0.0000 C   0  0  0  0  0  0  0  0  0  0  0  0
    2.1193    1.5687    0.0000 C   0  0  0  0  0  0  0  0  0  0  0  0
    2.0329    2.3911    0.0000 C   0  0  0  0  0  0  0  0  0  0  0  0
    2.7019    2.8772    0.0000 C   0  0  0  0  0  0  0  0  0  0  0  0
    3.4574    2.5409    0.0000 N   0  0  0  0  0  0  0  0  0  0  0  0
    3.5439    1.7184    0.0000 C   0  0  0  0  0  0  0  0  0  0  0  0
    2.8748    1.2323    0.0000 C   0  0  0  0  0  0  0  0  0  0  0  0
    1.4503    0.2556    0.0000 C   0  0  0  0  0  0  0  0  0  0  0  0
    0.6637   -0.0000    0.0000 S   0  0  0  0  0  0  0  0  0  0  0  0
  1  2  1  0  0  0
  2  3  2  0  0  0
  2  4  1  0  0  0
  4  5  1  0  0  0
  5  6  1  0  0  0
  6  7  2  0  0  0
  6  8  1  0  0  0
  8  9  1  0  0  0
  9 19  1  0  0  0
  9 10  2  0  0  0
 10 11  1  0  0  0
 11 12  1  0  0  0
 12 17  1  0  0  0
 12 13  2  0  0  0
 13 14  1  0  0  0
 14 15  2  0  0  0
 15 16  1  0  0  0
 16 17  2  0  0  0
 11 18  2  0  0  0
 18 19  1  0  0  0
M  END
>  <Entry>
199

>  <title>
14-245

>  <rigid docking scores>
-17.4305

>  <InChIKey>
OBCIUGMNHGBKBB-UHFFFAOYSA-N

$$$$
atoms 25 bonds 27
dotmatics
mol io
 25 27  0  0  0  0  0  0  0  0999 V2000
    7.7237    2.0427    0.0000 C   0  0  0  0  0  0  0  0  0  0  0  0
    7.7237    1.2157    0.0000 C   0  0  0  0  0  0  0  0  0  0  0  0
    8.4399    0.8022    0.0000 N   0  0  0  0  0  0  0  0  0  0  0  0
    8.4399   -0.0248    0.0000 C   0  0  0  0  0  0  0  0  0  0  0  0
    7.7237   -0.4383    0.0000 C   0  0  0  0  0  0  0  0  0  0  0  0
    7.0075   -0.0248    0.0000 C   0  0  0  0  0  0  0  0  0  0  0  0
    7.0075    0.8022    0.0000 C   0  0  0  0  0  0  0  0  0  0  0  0
    6.2913    1.2157    0.0000 N   0  0  0  0  0  0  0  0  0  0  0  0
    5.5751    0.8022    0.0000 C   0  0  0  0  0  0  0  0  0  0  0  0
    5.5751   -0.0248    0.0000 O   0  0  0  0  0  0  0  0  0  0  0  0
    4.8589    1.2157    0.0000 C   0  0  0  0  0  0  0  0  0  0  0  0
    4.1427    0.8022    0.0000 N   0  0  0  0  0  0  0  0  0  0  0  0
    4.2045   -0.0225    0.0000 C   0  0  0  0  0  0  0  0  0  0  0  0
    3.5983   -0.5850    0.0000 C   0  0  0  0  0  0  0  0  0  0  0  0
    2.7805   -0.4618    0.0000 C   0  0  0  0  0  0  0  0  0  0  0  0
    2.3670    0.2544    0.0000 N   0  0  0  0  0  0  0  0  0  0  0  0
    1.5423    0.1926    0.0000 C   0  0  0  0  0  0  0  0  0  0  0  0
    1.1835   -0.5525    0.0000 C   0  0  0  0  0  0  0  0  0  0  0  0
    1.6494   -1.2358    0.0000 C   0  0  0  0  0  0  0  0  0  0  0  0
    1.2906   -1.9809    0.0000 C   0  0  0  0  0  0  0  0  0  0  0  0
    0.4659   -2.0427    0.0000 C   0  0  0  0  0  0  0  0  0  0  0  0
    0.0000   -1.3594    0.0000 C   0  0  0  0  0  0  0  0  0  0  0  0
    0.3588   -0.6143    0.0000 C   0  0  0  0  0  0  0  0  0  0  0  0
    2.6692    1.0243    0.0000 C   0  0  0  0  0  0  0  0  0  0  0  0
    3.4594    1.2680    0.0000 C   0  0  0  0  0  0  0  0  0  0  0  0
  1  2  1  0  0  0
  2  7  1  0  0  0
  2  3  2  0  0  0
  3  4  1  0  0  0
  4  5  2  0  0  0
  5  6  1  0  0  0
  6  7  2  0  0  0
  7  8  1  0  0  0
  8  9  1  0  0  0
  9 10  2  0  0  0
  9 11  1  0  0  0
 11 12  1  0  0  0
 12 25  1  0  0  0
 12 13  1  0  0  0
 13 14  1  0  0  0
 14 15  1  0  0  0
 15 16  1  0  0  0
 16 17  1  0  0  0
 17 18  1  0  0  0
 18 23  1  0  0  0
 18 19  2  0  0  0
 19 20  1  0  0  0
 20 21  2  0  0  0
 21 22  1  0  0  0
 22 23  2  0  0  0
 16 24  1  0  0  0
 24 25  1  0  0  0
M  END
>  <Entry>
200

>  <title>
2-3605

>  <rigid docking scores>
-16.0305

>  <InChIKey>
JOZQYXNFOJJFSP-UHFFFAOYSA-N

$$$$
atoms 18 bonds 19
dotmatics
mol io
 18 19  0  0  0  0  0  0  0  0999 V2000
   -3.2149    2.1015    0.0000 C   0  0  0  0  0  0  0  0  0  0  0  0
   -2.8014    1.3853    0.0000 C   0  0  0  0  0  0  0  0  0  0  0  0
   -3.2149    0.6691    0.0000 C   0  0  0  0  0  0  0  0  0  0  0  0
   -1.9744    1.3853    0.0000 C   0  0  0  0  0  0  0  0  0  0  0  0
   -1.5609    2.1015    0.0000 O   0  0  0  0  0  0  0  0  0  0  0  0
   -1.5609    0.6691    0.0000 N   0  0  0  0  0  0  0  0  0  0  0  0
   -0.7339    0.6691    0.0000 C   0  0  0  0  0  0  0  0  0  0  0  0
   -0.2478    1.3381    0.0000 N   0  0  0  0  0  0  0  0  0  0  0  0
    0.5387    1.0826    0.0000 C   0  0  0  0  0  0  0  0  0  0  0  0
    1.2078    1.5687    0.0000 C   0  0  0  0  0  0  0  0  0  0  0  0
    1.1213    2.3911    0.0000 C   0  0  0  0  0  0  0  0  0  0  0  0
    1.7904    2.8772    0.0000 C   0  0  0  0  0  0  0  0  0  0  0  0
    2.5459    2.5409    0.0000 C   0  0  0  0  0  0  0  0  0  0  0  0
    3.2149    3.0270    0.0000 F   0  0  0  0  0  0  0  0  0  0  0  0
    2.6323    1.7184    0.0000 C   0  0  0  0  0  0  0  0  0  0  0  0
    1.9633    1.2323    0.0000 C   0  0  0  0  0  0  0  0  0  0  0  0
    0.5387    0.2556    0.0000 C   0  0  0  0  0  0  0  0  0  0  0  0
   -0.2478    0.0000    0.0000 S   0  0  0  0  0  0  0  0  0  0  0  0
  1  2  1  0  0  0
  2  3  1  0  0  0
  2  4  1  0  0  0
  4  5  2  0  0  0
  4  6  1  0  0  0
  6  7  1  0  0  0
  7 18  1  0  0  0
  7  8  2  0  0  0
  8  9  1  0  0  0
  9 10  1  0  0  0
 10 16  1  0  0  0
 10 11  2  0  0  0
 11 12  1  0  0  0
 12 13  2  0  0  0
 13 14  1  0  0  0
 13 15  1  0  0  0
 15 16  2  0  0  0
  9 17  2  0  0  0
 17 18  1  0  0  0
M  END
>  <Entry>
201

>  <title>
14-315

>  <rigid docking scores>
-16.4453

>  <InChIKey>
FCJLECCXIPNERR-UHFFFAOYSA-N

>  <ZINC>
ZINC000000150312

>  <eMolecules>
1512983

>  <SureChEMBL Patents>
SCHEMBL9891898

>  <Pubchem>
734576

>  <Mcule>
MCULE-7586664534

>  <MolPort>
MolPort-001-501-627

$$$$
atoms 21 bonds 24
dotmatics
mol io
 21 24  0  0  0  0  0  0  0  0999 V2000
    6.4311   -0.3575    0.0000 O   0  0  0  0  0  0  0  0  0  0  0  0
    6.0176    0.3587    0.0000 C   0  0  0  0  0  0  0  0  0  0  0  0
    5.1906    0.3587    0.0000 N   0  0  0  0  0  0  0  0  0  0  0  0
    4.7771   -0.3575    0.0000 C   0  0  0  0  0  0  0  0  0  0  0  0
    5.1906   -1.0737    0.0000 C   0  0  0  0  0  0  0  0  0  0  0  0
    4.7771   -1.7899    0.0000 C   0  0  0  0  0  0  0  0  0  0  0  0
    3.9501   -1.7899    0.0000 C   0  0  0  0  0  0  0  0  0  0  0  0
    3.5366   -1.0737    0.0000 C   0  0  0  0  0  0  0  0  0  0  0  0
    2.7096   -1.0737    0.0000 C   0  0  0  0  0  0  0  0  0  0  0  0
    2.2185   -1.7422    0.0000 C   0  0  0  0  0  0  0  0  0  0  0  0
    1.4317   -1.4878    0.0000 N   0  0  0  0  0  0  0  0  0  0  0  0
    0.7158   -1.9019    0.0000 C   0  0  0  0  0  0  0  0  0  0  0  0
    0.0000   -1.4878    0.0000 C   0  0  0  0  0  0  0  0  0  0  0  0
    0.0000   -0.6596    0.0000 C   0  0  0  0  0  0  0  0  0  0  0  0
    0.7158   -0.2454    0.0000 N   0  0  0  0  0  0  0  0  0  0  0  0
    1.4317   -0.6596    0.0000 C   0  0  0  0  0  0  0  0  0  0  0  0
    2.2185   -0.4052    0.0000 N   0  0  0  0  0  0  0  0  0  0  0  0
    3.9501   -0.3575    0.0000 C   0  0  0  0  0  0  0  0  0  0  0  0
    6.4311    1.0749    0.0000 C   0  0  0  0  0  0  0  0  0  0  0  0
    6.4311    1.9019    0.0000 C   0  0  0  0  0  0  0  0  0  0  0  0
    7.1473    1.4884    0.0000 C   0  0  0  0  0  0  0  0  0  0  0  0
  1  2  2  0  0  0
  2  3  1  0  0  0
  3  4  1  0  0  0
  4 18  1  0  0  0
  4  5  2  0  0  0
  5  6  1  0  0  0
  6  7  2  0  0  0
  7  8  1  0  0  0
  8  9  1  0  0  0
  9 17  1  0  0  0
  9 10  2  0  0  0
 10 11  1  0  0  0
 11 16  1  0  0  0
 11 12  1  0  0  0
 12 13  2  0  0  0
 13 14  1  0  0  0
 14 15  2  0  0  0
 15 16  1  0  0  0
 16 17  2  0  0  0
  8 18  2  0  0  0
  2 19  1  0  0  0
 19 21  1  0  0  0
 19 20  1  0  0  0
 20 21  1  0  0  0
M  END
>  <Entry>
202

>  <title>
14-427

>  <rigid docking scores>
-15.7866

>  <InChIKey>
VYGNLTWTHGVFIA-UHFFFAOYSA-N

>  <Pubchem>
121024134

$$$$
atoms 19 bonds 21
dotmatics
mol io
 19 21  0  0  0  0  0  0  0  0999 V2000
   -1.7385    4.3568    0.0000 O   0  0  0  0  0  0  0  0  0  0  0  0
   -2.1520    3.6406    0.0000 C   0  0  0  0  0  0  0  0  0  0  0  0
   -1.7385    2.9244    0.0000 N   0  0  0  0  0  0  0  0  0  0  0  0
   -0.9115    2.9244    0.0000 C   0  0  0  0  0  0  0  0  0  0  0  0
   -0.4980    2.2082    0.0000 C   0  0  0  0  0  0  0  0  0  0  0  0
    0.3290    2.2082    0.0000 C   0  0  0  0  0  0  0  0  0  0  0  0
    0.8151    2.8772    0.0000 C   0  0  0  0  0  0  0  0  0  0  0  0
    1.6016    2.6217    0.0000 S   0  0  0  0  0  0  0  0  0  0  0  0
    1.6016    1.7947    0.0000 C   0  0  0  0  0  0  0  0  0  0  0  0
    2.2707    1.3086    0.0000 C   0  0  0  0  0  0  0  0  0  0  0  0
    3.0262    1.6449    0.0000 C   0  0  0  0  0  0  0  0  0  0  0  0
    3.6952    1.1588    0.0000 N   0  0  0  0  0  0  0  0  0  0  0  0
    3.6088    0.3364    0.0000 C   0  0  0  0  0  0  0  0  0  0  0  0
    2.8533   -0.0000    0.0000 C   0  0  0  0  0  0  0  0  0  0  0  0
    2.1842    0.4861    0.0000 N   0  0  0  0  0  0  0  0  0  0  0  0
    0.8151    1.5391    0.0000 N   0  0  0  0  0  0  0  0  0  0  0  0
   -2.9790    3.6406    0.0000 C   0  0  0  0  0  0  0  0  0  0  0  0
   -3.6952    3.2271    0.0000 C   0  0  0  0  0  0  0  0  0  0  0  0
   -3.6952    4.0541    0.0000 C   0  0  0  0  0  0  0  0  0  0  0  0
  1  2  2  0  0  0
  2  3  1  0  0  0
  3  4  1  0  0  0
  4  5  1  0  0  0
  5  6  1  0  0  0
  6 16  1  0  0  0
  6  7  2  0  0  0
  7  8  1  0  0  0
  8  9  1  0  0  0
  9 10  1  0  0  0
 10 15  1  0  0  0
 10 11  2  0  0  0
 11 12  1  0  0  0
 12 13  2  0  0  0
 13 14  1  0  0  0
 14 15  2  0  0  0
  9 16  2  0  0  0
  2 17  1  0  0  0
 17 19  1  0  0  0
 17 18  1  0  0  0
 18 19  1  0  0  0
M  END
>  <Entry>
203

>  <title>
14-440

>  <rigid docking scores>
-15.7026

>  <InChIKey>
PUTCNJDZOKJJOW-UHFFFAOYSA-N

$$$$
atoms 23 bonds 25
dotmatics
mol io
 23 25  0  0  0  0  0  0  0  0999 V2000
    0.0000   -3.0668    0.0000 C   0  0  0  0  0  0  0  0  0  0  0  0
    0.5558   -2.4545    0.0000 N   0  0  0  0  0  0  0  0  0  0  0  0
    0.3034   -1.6669    0.0000 C   0  0  0  0  0  0  0  0  0  0  0  0
    0.8592   -1.0546    0.0000 C   0  0  0  0  0  0  0  0  0  0  0  0
    1.6675   -1.2297    0.0000 N   0  0  0  0  0  0  0  0  0  0  0  0
    2.2233   -0.6174    0.0000 C   0  0  0  0  0  0  0  0  0  0  0  0
    1.9709    0.1702    0.0000 C   0  0  0  0  0  0  0  0  0  0  0  0
    1.1626    0.3453    0.0000 O   0  0  0  0  0  0  0  0  0  0  0  0
    2.5267    0.7825    0.0000 N   0  0  0  0  0  0  0  0  0  0  0  0
    2.2743    1.5701    0.0000 C   0  0  0  0  0  0  0  0  0  0  0  0
    2.7653    2.2386    0.0000 C   0  0  0  0  0  0  0  0  0  0  0  0
    3.5923    2.2386    0.0000 C   0  0  0  0  0  0  0  0  0  0  0  0
    4.0058    1.5224    0.0000 N   0  0  0  0  0  0  0  0  0  0  0  0
    4.0058    2.9548    0.0000 O   0  0  0  0  0  0  0  0  0  0  0  0
    2.2743    2.9071    0.0000 O   0  0  0  0  0  0  0  0  0  0  0  0
    1.4874    2.6527    0.0000 C   0  0  0  0  0  0  0  0  0  0  0  0
    0.7716    3.0668    0.0000 C   0  0  0  0  0  0  0  0  0  0  0  0
    0.0557    2.6527    0.0000 C   0  0  0  0  0  0  0  0  0  0  0  0
    0.0557    1.8245    0.0000 C   0  0  0  0  0  0  0  0  0  0  0  0
    0.7716    1.4103    0.0000 C   0  0  0  0  0  0  0  0  0  0  0  0
    1.4874    1.8245    0.0000 C   0  0  0  0  0  0  0  0  0  0  0  0
    1.9199   -2.0173    0.0000 C   0  0  0  0  0  0  0  0  0  0  0  0
    1.3641   -2.6296    0.0000 C   0  0  0  0  0  0  0  0  0  0  0  0
  1  2  1  0  0  0
  2 23  1  0  0  0
  2  3  1  0  0  0
  3  4  1  0  0  0
  4  5  1  0  0  0
  5  6  1  0  0  0
  6  7  1  0  0  0
  7  8  2  0  0  0
  7  9  1  0  0  0
  9 10  1  0  0  0
 10 21  1  0  0  0
 10 11  2  0  0  0
 11 12  1  0  0  0
 12 13  1  0  0  0
 12 14  2  0  0  0
 11 15  1  0  0  0
 15 16  1  0  0  0
 16 21  1  0  0  0
 16 17  2  0  0  0
 17 18  1  0  0  0
 18 19  2  0  0  0
 19 20  1  0  0  0
 20 21  2  0  0  0
  5 22  1  0  0  0
 22 23  1  0  0  0
M  END
>  <Entry>
204

>  <title>
14-942

>  <rigid docking scores>
-16.5443

>  <InChIKey>
MIYKLGHXWCXCLA-UHFFFAOYSA-N

$$$$
atoms 21 bonds 23
dotmatics
mol io
 21 23  0  0  0  0  0  0  0  0999 V2000
    5.0444   -2.6813    0.0000 C   0  0  0  0  0  0  0  0  0  0  0  0
    4.3253   -2.2729    0.0000 N   0  0  0  0  0  0  0  0  0  0  0  0
    4.3194   -1.4459    0.0000 C   0  0  0  0  0  0  0  0  0  0  0  0
    5.0326   -1.0273    0.0000 O   0  0  0  0  0  0  0  0  0  0  0  0
    3.6002   -1.0376    0.0000 C   0  0  0  0  0  0  0  0  0  0  0  0
    2.8870   -1.4562    0.0000 C   0  0  0  0  0  0  0  0  0  0  0  0
    2.1679   -1.0478    0.0000 C   0  0  0  0  0  0  0  0  0  0  0  0
    2.1620   -0.2208    0.0000 C   0  0  0  0  0  0  0  0  0  0  0  0
    2.8752    0.1978    0.0000 N   0  0  0  0  0  0  0  0  0  0  0  0
    2.8693    1.0248    0.0000 C   0  0  0  0  0  0  0  0  0  0  0  0
    3.5851    1.4389    0.0000 N   0  0  0  0  0  0  0  0  0  0  0  0
    3.5851    2.2672    0.0000 C   0  0  0  0  0  0  0  0  0  0  0  0
    2.8693    2.6813    0.0000 N   0  0  0  0  0  0  0  0  0  0  0  0
    2.1475    2.2672    0.0000 C   0  0  0  0  0  0  0  0  0  0  0  0
    1.4317    2.6813    0.0000 N   0  0  0  0  0  0  0  0  0  0  0  0
    0.7158    2.2672    0.0000 C   0  0  0  0  0  0  0  0  0  0  0  0
    0.0000    2.6813    0.0000 C   0  0  0  0  0  0  0  0  0  0  0  0
    0.7158    1.4389    0.0000 C   0  0  0  0  0  0  0  0  0  0  0  0
    1.4317    1.0248    0.0000 C   0  0  0  0  0  0  0  0  0  0  0  0
    2.1475    1.4389    0.0000 C   0  0  0  0  0  0  0  0  0  0  0  0
    3.5943   -0.2106    0.0000 C   0  0  0  0  0  0  0  0  0  0  0  0
  1  2  1  0  0  0
  2  3  1  0  0  0
  3  4  2  0  0  0
  3  5  1  0  0  0
  5 21  1  0  0  0
  5  6  1  0  0  0
  6  7  1  0  0  0
  7  8  1  0  0  0
  8  9  1  0  0  0
  9 10  1  0  0  0
 10 20  1  0  0  0
 10 11  2  0  0  0
 11 12  1  0  0  0
 12 13  2  0  0  0
 13 14  1  0  0  0
 14 20  1  0  0  0
 14 15  2  0  0  0
 15 16  1  0  0  0
 16 17  1  0  0  0
 16 18  2  0  0  0
 18 19  1  0  0  0
 19 20  2  0  0  0
  9 21  1  0  0  0
M  END
>  <Entry>
205

>  <title>
14-1456

>  <rigid docking scores>
-17.6322

>  <InChIKey>
FYDMWBGPWLCAJL-UHFFFAOYSA-N

$$$$
atoms 21 bonds 23
dotmatics
mol io
 21 23  0  0  0  0  0  0  0  0999 V2000
   -3.8352    3.0741    0.0000 C   0  0  0  0  0  0  0  0  0  0  0  0
   -3.4217    2.3579    0.0000 C   0  0  0  0  0  0  0  0  0  0  0  0
   -3.8352    1.6417    0.0000 O   0  0  0  0  0  0  0  0  0  0  0  0
   -2.5947    2.3579    0.0000 N   0  0  0  0  0  0  0  0  0  0  0  0
   -2.1812    3.0741    0.0000 C   0  0  0  0  0  0  0  0  0  0  0  0
   -1.3542    3.0741    0.0000 C   0  0  0  0  0  0  0  0  0  0  0  0
   -0.9407    2.3579    0.0000 C   0  0  0  0  0  0  0  0  0  0  0  0
   -0.1137    2.3579    0.0000 C   0  0  0  0  0  0  0  0  0  0  0  0
    0.3724    3.0270    0.0000 N   0  0  0  0  0  0  0  0  0  0  0  0
    1.1589    2.7714    0.0000 N   0  0  0  0  0  0  0  0  0  0  0  0
    1.1589    1.9444    0.0000 C   0  0  0  0  0  0  0  0  0  0  0  0
    1.8280    1.4583    0.0000 C   0  0  0  0  0  0  0  0  0  0  0  0
    2.5835    1.7947    0.0000 C   0  0  0  0  0  0  0  0  0  0  0  0
    3.2526    1.3086    0.0000 C   0  0  0  0  0  0  0  0  0  0  0  0
    3.1661    0.4861    0.0000 C   0  0  0  0  0  0  0  0  0  0  0  0
    3.8352   -0.0000    0.0000 Cl  0  0  0  0  0  0  0  0  0  0  0  0
    2.4106    0.1497    0.0000 C   0  0  0  0  0  0  0  0  0  0  0  0
    1.7416    0.6358    0.0000 C   0  0  0  0  0  0  0  0  0  0  0  0
    0.3724    1.6888    0.0000 N   0  0  0  0  0  0  0  0  0  0  0  0
   -1.3542    1.6417    0.0000 C   0  0  0  0  0  0  0  0  0  0  0  0
   -2.1812    1.6417    0.0000 C   0  0  0  0  0  0  0  0  0  0  0  0
  1  2  1  0  0  0
  2  3  2  0  0  0
  2  4  1  0  0  0
  4 21  1  0  0  0
  4  5  1  0  0  0
  5  6  1  0  0  0
  6  7  1  0  0  0
  7  8  1  0  0  0
  8 19  1  0  0  0
  8  9  2  0  0  0
  9 10  1  0  0  0
 10 11  1  0  0  0
 11 12  1  0  0  0
 12 18  1  0  0  0
 12 13  2  0  0  0
 13 14  1  0  0  0
 14 15  2  0  0  0
 15 16  1  0  0  0
 15 17  1  0  0  0
 17 18  2  0  0  0
 11 19  2  0  0  0
  7 20  1  0  0  0
 20 21  1  0  0  0
M  END
>  <Entry>
206

>  <title>
14-1591

>  <rigid docking scores>
-16.7702

>  <InChIKey>
YQXKNWIRRLUCPY-UHFFFAOYSA-N

$$$$
atoms 24 bonds 26
dotmatics
mol io
 24 26  0  0  0  0  0  0  0  0999 V2000
    7.4636    1.9791    0.0000 C   0  0  0  0  0  0  0  0  0  0  0  0
    7.4636    1.1521    0.0000 N   0  0  0  0  0  0  0  0  0  0  0  0
    6.7474    0.7386    0.0000 C   0  0  0  0  0  0  0  0  0  0  0  0
    6.0312    1.1521    0.0000 O   0  0  0  0  0  0  0  0  0  0  0  0
    6.7474   -0.0884    0.0000 C   0  0  0  0  0  0  0  0  0  0  0  0
    7.4636   -0.5019    0.0000 C   0  0  0  0  0  0  0  0  0  0  0  0
    7.4636   -1.3289    0.0000 C   0  0  0  0  0  0  0  0  0  0  0  0
    6.7474   -1.7424    0.0000 C   0  0  0  0  0  0  0  0  0  0  0  0
    6.0312   -1.3289    0.0000 N   0  0  0  0  0  0  0  0  0  0  0  0
    5.3150   -1.7424    0.0000 C   0  0  0  0  0  0  0  0  0  0  0  0
    4.5988   -1.3289    0.0000 C   0  0  0  0  0  0  0  0  0  0  0  0
    3.8432   -1.6653    0.0000 N   0  0  0  0  0  0  0  0  0  0  0  0
    3.2899   -1.0507    0.0000 C   0  0  0  0  0  0  0  0  0  0  0  0
    2.4674   -1.1371    0.0000 C   0  0  0  0  0  0  0  0  0  0  0  0
    2.1310   -1.8926    0.0000 C   0  0  0  0  0  0  0  0  0  0  0  0
    1.3086   -1.9791    0.0000 C   0  0  0  0  0  0  0  0  0  0  0  0
    0.8225   -1.3100    0.0000 C   0  0  0  0  0  0  0  0  0  0  0  0
    0.0000   -1.3965    0.0000 F   0  0  0  0  0  0  0  0  0  0  0  0
    1.1588   -0.5545    0.0000 C   0  0  0  0  0  0  0  0  0  0  0  0
    1.9813   -0.4681    0.0000 C   0  0  0  0  0  0  0  0  0  0  0  0
    3.7034   -0.3345    0.0000 O   0  0  0  0  0  0  0  0  0  0  0  0
    4.5123   -0.5064    0.0000 C   0  0  0  0  0  0  0  0  0  0  0  0
    5.1269    0.0469    0.0000 C   0  0  0  0  0  0  0  0  0  0  0  0
    6.0312   -0.5019    0.0000 C   0  0  0  0  0  0  0  0  0  0  0  0
  1  2  1  0  0  0
  2  3  1  0  0  0
  3  4  2  0  0  0
  3  5  1  0  0  0
  5 24  1  0  0  0
  5  6  1  0  0  0
  6  7  1  0  0  0
  7  8  1  0  0  0
  8  9  1  0  0  0
  9 10  1  0  0  0
 10 11  1  0  0  0
 11 22  2  0  0  0
 11 12  1  0  0  0
 12 13  2  0  0  0
 13 14  1  0  0  0
 14 20  1  0  0  0
 14 15  2  0  0  0
 15 16  1  0  0  0
 16 17  2  0  0  0
 17 18  1  0  0  0
 17 19  1  0  0  0
 19 20  2  0  0  0
 13 21  1  0  0  0
 21 22  1  0  0  0
 22 23  1  0  0  0
  9 24  1  0  0  0
M  END
>  <Entry>
207

>  <title>
14-1648

>  <rigid docking scores>
-18.5904

>  <InChIKey>
DHAVMBPDVLLLDX-UHFFFAOYSA-N

$$$$
atoms 23 bonds 26
dotmatics
mol io
 23 26  0  0  0  0  0  0  0  0999 V2000
    2.1771   -3.1028    0.0000 C   0  0  0  0  0  0  0  0  0  0  0  0
    2.1712   -2.2758    0.0000 N   0  0  0  0  0  0  0  0  0  0  0  0
    1.4520   -1.8674    0.0000 C   0  0  0  0  0  0  0  0  0  0  0  0
    1.4461   -1.0404    0.0000 C   0  0  0  0  0  0  0  0  0  0  0  0
    2.1594   -0.6218    0.0000 N   0  0  0  0  0  0  0  0  0  0  0  0
    2.1534    0.2051    0.0000 C   0  0  0  0  0  0  0  0  0  0  0  0
    2.8693    0.6193    0.0000 N   0  0  0  0  0  0  0  0  0  0  0  0
    2.8693    1.4475    0.0000 C   0  0  0  0  0  0  0  0  0  0  0  0
    3.5851    1.8616    0.0000 C   0  0  0  0  0  0  0  0  0  0  0  0
    3.5844    2.6886    0.0000 C   0  0  0  0  0  0  0  0  0  0  0  0
    4.3003    3.1028    0.0000 C   0  0  0  0  0  0  0  0  0  0  0  0
    5.0168    2.6899    0.0000 N   0  0  0  0  0  0  0  0  0  0  0  0
    5.0175    1.8629    0.0000 C   0  0  0  0  0  0  0  0  0  0  0  0
    4.3017    1.4488    0.0000 C   0  0  0  0  0  0  0  0  0  0  0  0
    2.1534    1.8616    0.0000 N   0  0  0  0  0  0  0  0  0  0  0  0
    1.4317    1.4475    0.0000 C   0  0  0  0  0  0  0  0  0  0  0  0
    1.4317    0.6193    0.0000 C   0  0  0  0  0  0  0  0  0  0  0  0
    0.7158    0.2051    0.0000 C   0  0  0  0  0  0  0  0  0  0  0  0
    0.0000    0.6193    0.0000 C   0  0  0  0  0  0  0  0  0  0  0  0
    0.0000    1.4475    0.0000 C   0  0  0  0  0  0  0  0  0  0  0  0
    0.7158    1.8616    0.0000 C   0  0  0  0  0  0  0  0  0  0  0  0
    2.8785   -1.0302    0.0000 C   0  0  0  0  0  0  0  0  0  0  0  0
    2.8844   -1.8572    0.0000 C   0  0  0  0  0  0  0  0  0  0  0  0
  1  2  1  0  0  0
  2 23  1  0  0  0
  2  3  1  0  0  0
  3  4  1  0  0  0
  4  5  1  0  0  0
  5  6  1  0  0  0
  6 17  1  0  0  0
  6  7  2  0  0  0
  7  8  1  0  0  0
  8  9  1  0  0  0
  9 14  1  0  0  0
  9 10  2  0  0  0
 10 11  1  0  0  0
 11 12  2  0  0  0
 12 13  1  0  0  0
 13 14  2  0  0  0
  8 15  2  0  0  0
 15 16  1  0  0  0
 16 21  1  0  0  0
 16 17  2  0  0  0
 17 18  1  0  0  0
 18 19  1  0  0  0
 19 20  1  0  0  0
 20 21  1  0  0  0
  5 22  1  0  0  0
 22 23  1  0  0  0
M  END
>  <Entry>
208

>  <title>
14-1973

>  <rigid docking scores>
-18.3887

>  <InChIKey>
DOPPTJQRDDSZBT-UHFFFAOYSA-N

$$$$
atoms 18 bonds 20
dotmatics
mol io
 18 20  0  0  0  0  0  0  0  0999 V2000
    0.0000    0.1535    0.0000 C   0  0  0  0  0  0  0  0  0  0  0  0
    0.7158    0.5676    0.0000 C   0  0  0  0  0  0  0  0  0  0  0  0
    1.4324    0.1547    0.0000 C   0  0  0  0  0  0  0  0  0  0  0  0
    1.4331   -0.6723    0.0000 O   0  0  0  0  0  0  0  0  0  0  0  0
    2.1482    0.5688    0.0000 N   0  0  0  0  0  0  0  0  0  0  0  0
    2.1482    1.3971    0.0000 C   0  0  0  0  0  0  0  0  0  0  0  0
    2.8641    1.8112    0.0000 C   0  0  0  0  0  0  0  0  0  0  0  0
    3.5799    1.3971    0.0000 C   0  0  0  0  0  0  0  0  0  0  0  0
    4.3668    1.6515    0.0000 O   0  0  0  0  0  0  0  0  0  0  0  0
    4.8578    0.9830    0.0000 N   0  0  0  0  0  0  0  0  0  0  0  0
    4.3668    0.3144    0.0000 C   0  0  0  0  0  0  0  0  0  0  0  0
    4.6192   -0.4731    0.0000 C   0  0  0  0  0  0  0  0  0  0  0  0
    5.4047   -0.7318    0.0000 C   0  0  0  0  0  0  0  0  0  0  0  0
    5.4014   -1.5588    0.0000 C   0  0  0  0  0  0  0  0  0  0  0  0
    4.6138   -1.8112    0.0000 S   0  0  0  0  0  0  0  0  0  0  0  0
    4.1304   -1.1402    0.0000 C   0  0  0  0  0  0  0  0  0  0  0  0
    3.5799    0.5688    0.0000 C   0  0  0  0  0  0  0  0  0  0  0  0
    2.8641    0.1547    0.0000 C   0  0  0  0  0  0  0  0  0  0  0  0
  1  2  1  0  0  0
  2  3  1  0  0  0
  3  4  2  0  0  0
  3  5  1  0  0  0
  5 18  1  0  0  0
  5  6  1  0  0  0
  6  7  1  0  0  0
  7  8  1  0  0  0
  8 17  2  0  0  0
  8  9  1  0  0  0
  9 10  1  0  0  0
 10 11  2  0  0  0
 11 12  1  0  0  0
 12 16  2  0  0  0
 12 13  1  0  0  0
 13 14  2  0  0  0
 14 15  1  0  0  0
 15 16  1  0  0  0
 11 17  1  0  0  0
 17 18  1  0  0  0
M  END
>  <Entry>
209

>  <title>
14-2311

>  <rigid docking scores>
-16.3267

>  <InChIKey>
BIHONVCHVVEYBR-UHFFFAOYSA-N

$$$$
atoms 20 bonds 22
dotmatics
mol io
 20 22  0  0  0  0  0  0  0  0999 V2000
    0.0000    0.5630    0.0000 O   0  0  0  0  0  0  0  0  0  0  0  0
    0.7162    0.1495    0.0000 C   0  0  0  0  0  0  0  0  0  0  0  0
    0.7162   -0.6775    0.0000 C   0  0  0  0  0  0  0  0  0  0  0  0
    1.3853   -1.1636    0.0000 C   0  0  0  0  0  0  0  0  0  0  0  0
    1.1297   -1.9502    0.0000 C   0  0  0  0  0  0  0  0  0  0  0  0
    0.3027   -1.9502    0.0000 O   0  0  0  0  0  0  0  0  0  0  0  0
    0.0471   -1.1636    0.0000 N   0  0  0  0  0  0  0  0  0  0  0  0
    1.4324    0.5630    0.0000 N   0  0  0  0  0  0  0  0  0  0  0  0
    1.3706    1.3877    0.0000 C   0  0  0  0  0  0  0  0  0  0  0  0
    1.9768    1.9502    0.0000 C   0  0  0  0  0  0  0  0  0  0  0  0
    2.7946    1.8269    0.0000 C   0  0  0  0  0  0  0  0  0  0  0  0
    3.2081    1.1107    0.0000 N   0  0  0  0  0  0  0  0  0  0  0  0
    4.0328    1.1725    0.0000 C   0  0  0  0  0  0  0  0  0  0  0  0
    4.4987    0.4892    0.0000 C   0  0  0  0  0  0  0  0  0  0  0  0
    5.3253    0.4645    0.0000 C   0  0  0  0  0  0  0  0  0  0  0  0
    5.5572   -0.3294    0.0000 C   0  0  0  0  0  0  0  0  0  0  0  0
    4.8739   -0.7952    0.0000 O   0  0  0  0  0  0  0  0  0  0  0  0
    4.2197   -0.2893    0.0000 N   0  0  0  0  0  0  0  0  0  0  0  0
    2.9060    0.3409    0.0000 C   0  0  0  0  0  0  0  0  0  0  0  0
    2.1157    0.0971    0.0000 C   0  0  0  0  0  0  0  0  0  0  0  0
  1  2  2  0  0  0
  2  3  1  0  0  0
  3  7  2  0  0  0
  3  4  1  0  0  0
  4  5  2  0  0  0
  5  6  1  0  0  0
  6  7  1  0  0  0
  2  8  1  0  0  0
  8 20  1  0  0  0
  8  9  1  0  0  0
  9 10  1  0  0  0
 10 11  1  0  0  0
 11 12  1  0  0  0
 12 13  1  0  0  0
 13 14  1  0  0  0
 14 18  2  0  0  0
 14 15  1  0  0  0
 15 16  2  0  0  0
 16 17  1  0  0  0
 17 18  1  0  0  0
 12 19  1  0  0  0
 19 20  1  0  0  0
M  END
>  <Entry>
210

>  <title>
14-2390

>  <rigid docking scores>
-17.6882

>  <InChIKey>
QHACWMPLAQXBAN-UHFFFAOYSA-N

$$$$
atoms 19 bonds 21
dotmatics
mol io
 19 21  0  0  0  0  0  0  0  0999 V2000
    4.7042    2.8130    0.0000 C   0  0  0  0  0  0  0  0  0  0  0  0
    4.7042    1.9860    0.0000 N   0  0  0  0  0  0  0  0  0  0  0  0
    5.4493    1.6272    0.0000 C   0  0  0  0  0  0  0  0  0  0  0  0
    5.6333    0.8209    0.0000 C   0  0  0  0  0  0  0  0  0  0  0  0
    5.1177    0.1744    0.0000 C   0  0  0  0  0  0  0  0  0  0  0  0
    4.2907    0.1744    0.0000 N   0  0  0  0  0  0  0  0  0  0  0  0
    3.9319   -0.5707    0.0000 C   0  0  0  0  0  0  0  0  0  0  0  0
    3.1072   -0.6325    0.0000 C   0  0  0  0  0  0  0  0  0  0  0  0
    2.6724   -1.3360    0.0000 C   0  0  0  0  0  0  0  0  0  0  0  0
    1.8690   -1.1400    0.0000 C   0  0  0  0  0  0  0  0  0  0  0  0
    1.2382   -1.6747    0.0000 C   0  0  0  0  0  0  0  0  0  0  0  0
    1.3000   -2.4994    0.0000 C   0  0  0  0  0  0  0  0  0  0  0  0
    0.5347   -2.8130    0.0000 C   0  0  0  0  0  0  0  0  0  0  0  0
    0.0000   -2.1822    0.0000 C   0  0  0  0  0  0  0  0  0  0  0  0
    0.4347   -1.4787    0.0000 S   0  0  0  0  0  0  0  0  0  0  0  0
    1.8072   -0.3153    0.0000 N   0  0  0  0  0  0  0  0  0  0  0  0
    2.5724   -0.0017    0.0000 O   0  0  0  0  0  0  0  0  0  0  0  0
    3.7751    0.8209    0.0000 C   0  0  0  0  0  0  0  0  0  0  0  0
    3.9591    1.6272    0.0000 C   0  0  0  0  0  0  0  0  0  0  0  0
  1  2  1  0  0  0
  2 19  1  0  0  0
  2  3  1  0  0  0
  3  4  1  0  0  0
  4  5  1  0  0  0
  5  6  1  0  0  0
  6  7  1  0  0  0
  7  8  1  0  0  0
  8 17  1  0  0  0
  8  9  2  0  0  0
  9 10  1  0  0  0
 10 11  1  0  0  0
 11 15  1  0  0  0
 11 12  2  0  0  0
 12 13  1  0  0  0
 13 14  2  0  0  0
 14 15  1  0  0  0
 10 16  2  0  0  0
 16 17  1  0  0  0
  6 18  1  0  0  0
 18 19  1  0  0  0
M  END
>  <Entry>
211

>  <title>
14-2474

>  <rigid docking scores>
-15.5306

>  <InChIKey>
PBAMFQKBTKGBSS-UHFFFAOYSA-N

$$$$
atoms 20 bonds 22
dotmatics
mol io
 20 22  0  0  0  0  0  0  0  0999 V2000
    5.0323    2.0745    0.0000 C   0  0  0  0  0  0  0  0  0  0  0  0
    5.0323    1.2475    0.0000 N   0  0  0  0  0  0  0  0  0  0  0  0
    5.7774    0.8887    0.0000 C   0  0  0  0  0  0  0  0  0  0  0  0
    5.9614    0.0825    0.0000 C   0  0  0  0  0  0  0  0  0  0  0  0
    5.4458   -0.5641    0.0000 C   0  0  0  0  0  0  0  0  0  0  0  0
    4.6188   -0.5641    0.0000 N   0  0  0  0  0  0  0  0  0  0  0  0
    4.2599   -1.3092    0.0000 C   0  0  0  0  0  0  0  0  0  0  0  0
    3.4352   -1.3710    0.0000 C   0  0  0  0  0  0  0  0  0  0  0  0
    3.0005   -2.0745    0.0000 C   0  0  0  0  0  0  0  0  0  0  0  0
    2.1971   -1.8785    0.0000 S   0  0  0  0  0  0  0  0  0  0  0  0
    2.1353   -1.0538    0.0000 C   0  0  0  0  0  0  0  0  0  0  0  0
    1.4318   -0.6190    0.0000 C   0  0  0  0  0  0  0  0  0  0  0  0
    0.7035   -1.0109    0.0000 C   0  0  0  0  0  0  0  0  0  0  0  0
    0.0000   -0.5762    0.0000 C   0  0  0  0  0  0  0  0  0  0  0  0
    0.0247    0.2504    0.0000 N   0  0  0  0  0  0  0  0  0  0  0  0
    0.7530    0.6423    0.0000 C   0  0  0  0  0  0  0  0  0  0  0  0
    1.4565    0.2076    0.0000 N   0  0  0  0  0  0  0  0  0  0  0  0
    2.9005   -0.7402    0.0000 N   0  0  0  0  0  0  0  0  0  0  0  0
    4.1031    0.0825    0.0000 C   0  0  0  0  0  0  0  0  0  0  0  0
    4.2871    0.8887    0.0000 C   0  0  0  0  0  0  0  0  0  0  0  0
  1  2  1  0  0  0
  2 20  1  0  0  0
  2  3  1  0  0  0
  3  4  1  0  0  0
  4  5  1  0  0  0
  5  6  1  0  0  0
  6  7  1  0  0  0
  7  8  1  0  0  0
  8 18  1  0  0  0
  8  9  2  0  0  0
  9 10  1  0  0  0
 10 11  1  0  0  0
 11 12  1  0  0  0
 12 17  1  0  0  0
 12 13  2  0  0  0
 13 14  1  0  0  0
 14 15  2  0  0  0
 15 16  1  0  0  0
 16 17  2  0  0  0
 11 18  2  0  0  0
  6 19  1  0  0  0
 19 20  1  0  0  0
M  END
>  <Entry>
212

>  <title>
14-2478

>  <rigid docking scores>
-15.9393

>  <InChIKey>
CQDRWPGTWDLFIM-UHFFFAOYSA-N

$$$$
atoms 21 bonds 23
dotmatics
mol io
 21 23  0  0  0  0  0  0  0  0999 V2000
    4.6422    2.5825    0.0000 C   0  0  0  0  0  0  0  0  0  0  0  0
    4.6422    1.7555    0.0000 N   0  0  0  0  0  0  0  0  0  0  0  0
    5.3584    1.3420    0.0000 C   0  0  0  0  0  0  0  0  0  0  0  0
    5.3584    0.5150    0.0000 C   0  0  0  0  0  0  0  0  0  0  0  0
    4.6422    0.1015    0.0000 N   0  0  0  0  0  0  0  0  0  0  0  0
    4.6422   -0.7255    0.0000 C   0  0  0  0  0  0  0  0  0  0  0  0
    3.9260   -1.1390    0.0000 C   0  0  0  0  0  0  0  0  0  0  0  0
    3.8396   -1.9615    0.0000 C   0  0  0  0  0  0  0  0  0  0  0  0
    3.0306   -2.1334    0.0000 O   0  0  0  0  0  0  0  0  0  0  0  0
    2.6171   -1.4172    0.0000 C   0  0  0  0  0  0  0  0  0  0  0  0
    1.7947   -1.3308    0.0000 C   0  0  0  0  0  0  0  0  0  0  0  0
    1.3086   -1.9999    0.0000 C   0  0  0  0  0  0  0  0  0  0  0  0
    0.4861   -1.9134    0.0000 C   0  0  0  0  0  0  0  0  0  0  0  0
    0.0000   -2.5825    0.0000 F   0  0  0  0  0  0  0  0  0  0  0  0
    0.1497   -1.1579    0.0000 C   0  0  0  0  0  0  0  0  0  0  0  0
    0.6358   -0.4889    0.0000 C   0  0  0  0  0  0  0  0  0  0  0  0
    1.4583   -0.5753    0.0000 C   0  0  0  0  0  0  0  0  0  0  0  0
    1.9444    0.0938    0.0000 F   0  0  0  0  0  0  0  0  0  0  0  0
    3.1705   -0.8027    0.0000 N   0  0  0  0  0  0  0  0  0  0  0  0
    3.9260    0.5150    0.0000 C   0  0  0  0  0  0  0  0  0  0  0  0
    3.9260    1.3420    0.0000 C   0  0  0  0  0  0  0  0  0  0  0  0
  1  2  1  0  0  0
  2 21  1  0  0  0
  2  3  1  0  0  0
  3  4  1  0  0  0
  4  5  1  0  0  0
  5  6  1  0  0  0
  6  7  1  0  0  0
  7 19  1  0  0  0
  7  8  2  0  0  0
  8  9  1  0  0  0
  9 10  1  0  0  0
 10 11  1  0  0  0
 11 17  1  0  0  0
 11 12  2  0  0  0
 12 13  1  0  0  0
 13 14  1  0  0  0
 13 15  2  0  0  0
 15 16  1  0  0  0
 16 17  2  0  0  0
 17 18  1  0  0  0
 10 19  2  0  0  0
  5 20  1  0  0  0
 20 21  1  0  0  0
M  END
>  <Entry>
213

>  <title>
14-2578

>  <rigid docking scores>
-15.9781

>  <InChIKey>
HNUZGNUAHHBKQU-UHFFFAOYSA-N

$$$$
atoms 21 bonds 23
dotmatics
mol io
 21 23  0  0  0  0  0  0  0  0999 V2000
   -4.1358    1.4181    0.0000 C   0  0  0  0  0  0  0  0  0  0  0  0
   -3.3088    1.4181    0.0000 C   0  0  0  0  0  0  0  0  0  0  0  0
   -2.8953    2.1343    0.0000 C   0  0  0  0  0  0  0  0  0  0  0  0
   -2.0683    2.1343    0.0000 C   0  0  0  0  0  0  0  0  0  0  0  0
   -1.6548    1.4181    0.0000 C   0  0  0  0  0  0  0  0  0  0  0  0
   -0.8278    1.4181    0.0000 C   0  0  0  0  0  0  0  0  0  0  0  0
   -0.3417    2.0871    0.0000 N   0  0  0  0  0  0  0  0  0  0  0  0
    0.4448    1.8316    0.0000 C   0  0  0  0  0  0  0  0  0  0  0  0
    1.1138    2.3177    0.0000 C   0  0  0  0  0  0  0  0  0  0  0  0
    1.8693    1.9813    0.0000 N   0  0  0  0  0  0  0  0  0  0  0  0
    2.5384    2.4674    0.0000 C   0  0  0  0  0  0  0  0  0  0  0  0
    3.2939    2.1310    0.0000 C   0  0  0  0  0  0  0  0  0  0  0  0
    3.3803    1.3086    0.0000 N   0  0  0  0  0  0  0  0  0  0  0  0
    4.1358    0.9722    0.0000 C   0  0  0  0  0  0  0  0  0  0  0  0
    2.7113    0.8225    0.0000 C   0  0  0  0  0  0  0  0  0  0  0  0
    2.7977   -0.0000    0.0000 C   0  0  0  0  0  0  0  0  0  0  0  0
    1.9558    1.1588    0.0000 C   0  0  0  0  0  0  0  0  0  0  0  0
    0.4448    1.0046    0.0000 C   0  0  0  0  0  0  0  0  0  0  0  0
   -0.3417    0.7490    0.0000 O   0  0  0  0  0  0  0  0  0  0  0  0
   -2.0683    0.7019    0.0000 C   0  0  0  0  0  0  0  0  0  0  0  0
   -2.8953    0.7019    0.0000 C   0  0  0  0  0  0  0  0  0  0  0  0
  1  2  1  0  0  0
  2 21  1  0  0  0
  2  3  2  0  0  0
  3  4  1  0  0  0
  4  5  2  0  0  0
  5  6  1  0  0  0
  6 19  1  0  0  0
  6  7  2  0  0  0
  7  8  1  0  0  0
  8  9  1  0  0  0
  9 10  1  0  0  0
 10 17  1  0  0  0
 10 11  1  0  0  0
 11 12  1  0  0  0
 12 13  1  0  0  0
 13 14  1  0  0  0
 13 15  1  0  0  0
 15 16  1  0  0  0
 15 17  1  0  0  0
  8 18  2  0  0  0
 18 19  1  0  0  0
  5 20  1  0  0  0
 20 21  2  0  0  0
M  END
>  <Entry>
214

>  <title>
14-2580

>  <rigid docking scores>
-15.7119

>  <InChIKey>
VFLWFNLARGERKX-UHFFFAOYSA-N

$$$$
atoms 20 bonds 22
dotmatics
mol io
 20 22  0  0  0  0  0  0  0  0999 V2000
    5.3150    2.3580    0.0000 C   0  0  0  0  0  0  0  0  0  0  0  0
    5.3150    1.5310    0.0000 N   0  0  0  0  0  0  0  0  0  0  0  0
    6.0312    1.1175    0.0000 C   0  0  0  0  0  0  0  0  0  0  0  0
    6.0312    0.2905    0.0000 C   0  0  0  0  0  0  0  0  0  0  0  0
    5.3150   -0.1230    0.0000 N   0  0  0  0  0  0  0  0  0  0  0  0
    5.3150   -0.9500    0.0000 C   0  0  0  0  0  0  0  0  0  0  0  0
    4.5988   -1.3635    0.0000 C   0  0  0  0  0  0  0  0  0  0  0  0
    4.5123   -2.1860    0.0000 C   0  0  0  0  0  0  0  0  0  0  0  0
    3.7034   -2.3580    0.0000 O   0  0  0  0  0  0  0  0  0  0  0  0
    3.2899   -1.6418    0.0000 C   0  0  0  0  0  0  0  0  0  0  0  0
    2.4674   -1.5553    0.0000 C   0  0  0  0  0  0  0  0  0  0  0  0
    1.9813   -2.2244    0.0000 C   0  0  0  0  0  0  0  0  0  0  0  0
    1.1588   -2.1379    0.0000 C   0  0  0  0  0  0  0  0  0  0  0  0
    0.8225   -1.3824    0.0000 C   0  0  0  0  0  0  0  0  0  0  0  0
    0.0000   -1.2960    0.0000 F   0  0  0  0  0  0  0  0  0  0  0  0
    1.3086   -0.7134    0.0000 C   0  0  0  0  0  0  0  0  0  0  0  0
    2.1310   -0.7998    0.0000 C   0  0  0  0  0  0  0  0  0  0  0  0
    3.8432   -1.0272    0.0000 N   0  0  0  0  0  0  0  0  0  0  0  0
    4.5988    0.2905    0.0000 C   0  0  0  0  0  0  0  0  0  0  0  0
    4.5988    1.1175    0.0000 C   0  0  0  0  0  0  0  0  0  0  0  0
  1  2  1  0  0  0
  2 20  1  0  0  0
  2  3  1  0  0  0
  3  4  1  0  0  0
  4  5  1  0  0  0
  5  6  1  0  0  0
  6  7  1  0  0  0
  7 18  1  0  0  0
  7  8  2  0  0  0
  8  9  1  0  0  0
  9 10  1  0  0  0
 10 11  1  0  0  0
 11 17  1  0  0  0
 11 12  2  0  0  0
 12 13  1  0  0  0
 13 14  2  0  0  0
 14 15  1  0  0  0
 14 16  1  0  0  0
 16 17  2  0  0  0
 10 18  2  0  0  0
  5 19  1  0  0  0
 19 20  1  0  0  0
M  END
>  <Entry>
215

>  <title>
14-2581

>  <rigid docking scores>
-15.9085

>  <InChIKey>
XDCUQJGTICMLMT-UHFFFAOYSA-N

>  <Mcule>
MCULE-8098742610

$$$$
atoms 21 bonds 23
dotmatics
mol io
 21 23  0  0  0  0  0  0  0  0999 V2000
    0.0000    0.7537    0.0000 O   0  0  0  0  0  0  0  0  0  0  0  0
    0.7162    0.3402    0.0000 C   0  0  0  0  0  0  0  0  0  0  0  0
    0.7162   -0.4868    0.0000 C   0  0  0  0  0  0  0  0  0  0  0  0
    1.4324   -0.9003    0.0000 C   0  0  0  0  0  0  0  0  0  0  0  0
    1.4324   -1.7273    0.0000 C   0  0  0  0  0  0  0  0  0  0  0  0
    0.7162   -2.1408    0.0000 C   0  0  0  0  0  0  0  0  0  0  0  0
    0.0000   -1.7273    0.0000 N   0  0  0  0  0  0  0  0  0  0  0  0
    0.0000   -0.9003    0.0000 C   0  0  0  0  0  0  0  0  0  0  0  0
    1.4324    0.7537    0.0000 N   0  0  0  0  0  0  0  0  0  0  0  0
    1.3706    1.5783    0.0000 C   0  0  0  0  0  0  0  0  0  0  0  0
    1.9768    2.1408    0.0000 C   0  0  0  0  0  0  0  0  0  0  0  0
    2.7946    2.0176    0.0000 C   0  0  0  0  0  0  0  0  0  0  0  0
    3.2081    1.3014    0.0000 N   0  0  0  0  0  0  0  0  0  0  0  0
    4.0328    1.3632    0.0000 C   0  0  0  0  0  0  0  0  0  0  0  0
    4.4987    0.6799    0.0000 C   0  0  0  0  0  0  0  0  0  0  0  0
    5.3253    0.6551    0.0000 C   0  0  0  0  0  0  0  0  0  0  0  0
    5.5572   -0.1387    0.0000 C   0  0  0  0  0  0  0  0  0  0  0  0
    4.8739   -0.6045    0.0000 O   0  0  0  0  0  0  0  0  0  0  0  0
    4.2197   -0.0986    0.0000 N   0  0  0  0  0  0  0  0  0  0  0  0
    2.9060    0.5316    0.0000 C   0  0  0  0  0  0  0  0  0  0  0  0
    2.1157    0.2878    0.0000 C   0  0  0  0  0  0  0  0  0  0  0  0
  1  2  2  0  0  0
  2  3  1  0  0  0
  3  8  1  0  0  0
  3  4  2  0  0  0
  4  5  1  0  0  0
  5  6  2  0  0  0
  6  7  1  0  0  0
  7  8  2  0  0  0
  2  9  1  0  0  0
  9 21  1  0  0  0
  9 10  1  0  0  0
 10 11  1  0  0  0
 11 12  1  0  0  0
 12 13  1  0  0  0
 13 14  1  0  0  0
 14 15  1  0  0  0
 15 19  2  0  0  0
 15 16  1  0  0  0
 16 17  2  0  0  0
 17 18  1  0  0  0
 18 19  1  0  0  0
 13 20  1  0  0  0
 20 21  1  0  0  0
M  END
>  <Entry>
216

>  <title>
14-2596

>  <rigid docking scores>
-16.4606

>  <InChIKey>
BUSIUSRJWGDFNZ-UHFFFAOYSA-N

$$$$
atoms 21 bonds 23
dotmatics
mol io
 21 23  0  0  0  0  0  0  0  0999 V2000
    2.9805    1.6387    0.0000 N   0  0  0  0  0  0  0  0  0  0  0  0
    2.2643    1.2252    0.0000 C   0  0  0  0  0  0  0  0  0  0  0  0
    1.5481    1.6387    0.0000 O   0  0  0  0  0  0  0  0  0  0  0  0
    2.2643    0.3982    0.0000 C   0  0  0  0  0  0  0  0  0  0  0  0
    2.9333   -0.0879    0.0000 C   0  0  0  0  0  0  0  0  0  0  0  0
    3.7199    0.1677    0.0000 N   0  0  0  0  0  0  0  0  0  0  0  0
    4.3344   -0.3857    0.0000 C   0  0  0  0  0  0  0  0  0  0  0  0
    4.1625   -1.1946    0.0000 O   0  0  0  0  0  0  0  0  0  0  0  0
    5.1210   -0.1301    0.0000 C   0  0  0  0  0  0  0  0  0  0  0  0
    5.3765    0.6564    0.0000 C   0  0  0  0  0  0  0  0  0  0  0  0
    6.2035    0.6564    0.0000 C   0  0  0  0  0  0  0  0  0  0  0  0
    6.4591   -0.1301    0.0000 C   0  0  0  0  0  0  0  0  0  0  0  0
    5.7900   -0.6162    0.0000 S   0  0  0  0  0  0  0  0  0  0  0  0
    2.6778   -0.8744    0.0000 S   0  0  0  0  0  0  0  0  0  0  0  0
    1.8508   -0.8744    0.0000 C   0  0  0  0  0  0  0  0  0  0  0  0
    1.5952   -0.0879    0.0000 C   0  0  0  0  0  0  0  0  0  0  0  0
    0.8209    0.2027    0.0000 C   0  0  0  0  0  0  0  0  0  0  0  0
    0.1110   -0.2215    0.0000 C   0  0  0  0  0  0  0  0  0  0  0  0
    0.0000   -1.0410    0.0000 N   0  0  0  0  0  0  0  0  0  0  0  0
    0.5715   -1.6387    0.0000 C   0  0  0  0  0  0  0  0  0  0  0  0
    1.3952   -1.5646    0.0000 C   0  0  0  0  0  0  0  0  0  0  0  0
  1  2  1  0  0  0
  2  3  2  0  0  0
  2  4  1  0  0  0
  4 16  1  0  0  0
  4  5  2  0  0  0
  5  6  1  0  0  0
  6  7  1  0  0  0
  7  8  2  0  0  0
  7  9  1  0  0  0
  9 13  1  0  0  0
  9 10  2  0  0  0
 10 11  1  0  0  0
 11 12  2  0  0  0
 12 13  1  0  0  0
  5 14  1  0  0  0
 14 15  1  0  0  0
 15 21  1  0  0  0
 15 16  2  0  0  0
 16 17  1  0  0  0
 17 18  1  0  0  0
 18 19  1  0  0  0
 19 20  1  0  0  0
 20 21  1  0  0  0
M  END
>  <Entry>
217

>  <title>
14-2674

>  <rigid docking scores>
-15.9074

>  <InChIKey>
JLZWMNUKZZJCDR-UHFFFAOYSA-N

$$$$
atoms 22 bonds 24
dotmatics
mol io
 22 24  0  0  0  0  0  0  0  0999 V2000
    5.7305    2.6899    0.0000 C   0  0  0  0  0  0  0  0  0  0  0  0
    5.0147    2.2758    0.0000 C   0  0  0  0  0  0  0  0  0  0  0  0
    5.0154    1.4488    0.0000 N   0  0  0  0  0  0  0  0  0  0  0  0
    4.2995    1.0347    0.0000 C   0  0  0  0  0  0  0  0  0  0  0  0
    3.5830    1.4476    0.0000 O   0  0  0  0  0  0  0  0  0  0  0  0
    4.3003    0.2077    0.0000 C   0  0  0  0  0  0  0  0  0  0  0  0
    5.0168   -0.2052    0.0000 C   0  0  0  0  0  0  0  0  0  0  0  0
    5.0175   -1.0322    0.0000 C   0  0  0  0  0  0  0  0  0  0  0  0
    4.3017   -1.4463    0.0000 C   0  0  0  0  0  0  0  0  0  0  0  0
    3.5851   -1.0334    0.0000 N   0  0  0  0  0  0  0  0  0  0  0  0
    2.8693   -1.4476    0.0000 C   0  0  0  0  0  0  0  0  0  0  0  0
    2.1534   -1.0334    0.0000 N   0  0  0  0  0  0  0  0  0  0  0  0
    1.4317   -1.4476    0.0000 C   0  0  0  0  0  0  0  0  0  0  0  0
    0.7158   -1.0334    0.0000 C   0  0  0  0  0  0  0  0  0  0  0  0
    0.0000   -1.4476    0.0000 C   0  0  0  0  0  0  0  0  0  0  0  0
    0.0000   -2.2758    0.0000 C   0  0  0  0  0  0  0  0  0  0  0  0
    0.7158   -2.6899    0.0000 C   0  0  0  0  0  0  0  0  0  0  0  0
    1.4317   -2.2758    0.0000 C   0  0  0  0  0  0  0  0  0  0  0  0
    2.1534   -2.6899    0.0000 N   0  0  0  0  0  0  0  0  0  0  0  0
    2.8693   -2.2758    0.0000 C   0  0  0  0  0  0  0  0  0  0  0  0
    3.5851   -2.6899    0.0000 O   0  0  0  0  0  0  0  0  0  0  0  0
    3.5844   -0.2064    0.0000 C   0  0  0  0  0  0  0  0  0  0  0  0
  1  2  1  0  0  0
  2  3  1  0  0  0
  3  4  1  0  0  0
  4  5  2  0  0  0
  4  6  1  0  0  0
  6 22  1  0  0  0
  6  7  1  0  0  0
  7  8  1  0  0  0
  8  9  1  0  0  0
  9 10  1  0  0  0
 10 11  1  0  0  0
 11 20  1  0  0  0
 11 12  2  0  0  0
 12 13  1  0  0  0
 13 18  1  0  0  0
 13 14  2  0  0  0
 14 15  1  0  0  0
 15 16  2  0  0  0
 16 17  1  0  0  0
 17 18  2  0  0  0
 18 19  1  0  0  0
 19 20  1  0  0  0
 20 21  2  0  0  0
 10 22  1  0  0  0
M  END
>  <Entry>
218

>  <title>
14-2815

>  <rigid docking scores>
-16.2663

>  <InChIKey>
VYEUBINZFUFCHT-UHFFFAOYSA-N

$$$$
atoms 22 bonds 25
dotmatics
mol io
 22 25  0  0  0  0  0  0  0  0999 V2000
    5.9245   -1.2417    0.0000 O   0  0  0  0  0  0  0  0  0  0  0  0
    5.9245   -0.4147    0.0000 C   0  0  0  0  0  0  0  0  0  0  0  0
    6.6404   -0.0006    0.0000 C   0  0  0  0  0  0  0  0  0  0  0  0
    7.4272   -0.2550    0.0000 N   0  0  0  0  0  0  0  0  0  0  0  0
    7.9183    0.4135    0.0000 C   0  0  0  0  0  0  0  0  0  0  0  0
    7.4272    1.0820    0.0000 N   0  0  0  0  0  0  0  0  0  0  0  0
    6.6404    0.8276    0.0000 C   0  0  0  0  0  0  0  0  0  0  0  0
    5.9245    1.2417    0.0000 C   0  0  0  0  0  0  0  0  0  0  0  0
    5.2087    0.8276    0.0000 C   0  0  0  0  0  0  0  0  0  0  0  0
    5.2087   -0.0006    0.0000 N   0  0  0  0  0  0  0  0  0  0  0  0
    4.4929   -0.4147    0.0000 C   0  0  0  0  0  0  0  0  0  0  0  0
    3.7763   -0.0019    0.0000 C   0  0  0  0  0  0  0  0  0  0  0  0
    3.0211   -0.3389    0.0000 C   0  0  0  0  0  0  0  0  0  0  0  0
    2.4672    0.2752    0.0000 C   0  0  0  0  0  0  0  0  0  0  0  0
    1.6448    0.1880    0.0000 C   0  0  0  0  0  0  0  0  0  0  0  0
    1.3091   -0.5678    0.0000 C   0  0  0  0  0  0  0  0  0  0  0  0
    0.4867   -0.6549    0.0000 C   0  0  0  0  0  0  0  0  0  0  0  0
    0.0000    0.0137    0.0000 C   0  0  0  0  0  0  0  0  0  0  0  0
    0.3357    0.7695    0.0000 C   0  0  0  0  0  0  0  0  0  0  0  0
    1.1581    0.8567    0.0000 C   0  0  0  0  0  0  0  0  0  0  0  0
    2.8801    0.9918    0.0000 N   0  0  0  0  0  0  0  0  0  0  0  0
    3.6891    0.8205    0.0000 O   0  0  0  0  0  0  0  0  0  0  0  0
  1  2  2  0  0  0
  2 10  1  0  0  0
  2  3  1  0  0  0
  3  7  2  0  0  0
  3  4  1  0  0  0
  4  5  1  0  0  0
  5  6  2  0  0  0
  6  7  1  0  0  0
  7  8  1  0  0  0
  8  9  1  0  0  0
  9 10  1  0  0  0
 10 11  1  0  0  0
 11 12  1  0  0  0
 12 22  1  0  0  0
 12 13  2  0  0  0
 13 14  1  0  0  0
 14 15  1  0  0  0
 15 20  1  0  0  0
 15 16  2  0  0  0
 16 17  1  0  0  0
 17 18  2  0  0  0
 18 19  1  0  0  0
 19 20  2  0  0  0
 14 21  2  0  0  0
 21 22  1  0  0  0
M  END
>  <Entry>
219

>  <title>
2-3858

>  <rigid docking scores>
-16.2425

>  <InChIKey>
AKWXTTKNDCIGMT-UHFFFAOYSA-N

$$$$
atoms 20 bonds 22
dotmatics
mol io
 20 22  0  0  0  0  0  0  0  0999 V2000
    3.0286    1.6320    0.0000 C   0  0  0  0  0  0  0  0  0  0  0  0
    3.0286    0.8050    0.0000 C   0  0  0  0  0  0  0  0  0  0  0  0
    3.6977    0.3189    0.0000 C   0  0  0  0  0  0  0  0  0  0  0  0
    4.4842    0.5745    0.0000 C   0  0  0  0  0  0  0  0  0  0  0  0
    5.0988    0.0211    0.0000 N   0  0  0  0  0  0  0  0  0  0  0  0
    5.8853    0.2767    0.0000 C   0  0  0  0  0  0  0  0  0  0  0  0
    6.4999   -0.2767    0.0000 C   0  0  0  0  0  0  0  0  0  0  0  0
    6.3280   -1.0856    0.0000 N   0  0  0  0  0  0  0  0  0  0  0  0
    6.9425   -1.6390    0.0000 C   0  0  0  0  0  0  0  0  0  0  0  0
    5.5414   -1.3412    0.0000 C   0  0  0  0  0  0  0  0  0  0  0  0
    4.9268   -0.7878    0.0000 C   0  0  0  0  0  0  0  0  0  0  0  0
    3.4421   -0.4676    0.0000 C   0  0  0  0  0  0  0  0  0  0  0  0
    2.6151   -0.4676    0.0000 N   0  0  0  0  0  0  0  0  0  0  0  0
    2.3596    0.3189    0.0000 N   0  0  0  0  0  0  0  0  0  0  0  0
    1.5730    0.5745    0.0000 C   0  0  0  0  0  0  0  0  0  0  0  0
    0.9585    0.0211    0.0000 C   0  0  0  0  0  0  0  0  0  0  0  0
    0.1719    0.2767    0.0000 C   0  0  0  0  0  0  0  0  0  0  0  0
    0.0000    1.0856    0.0000 C   0  0  0  0  0  0  0  0  0  0  0  0
    0.6146    1.6390    0.0000 C   0  0  0  0  0  0  0  0  0  0  0  0
    1.4011    1.3834    0.0000 N   0  0  0  0  0  0  0  0  0  0  0  0
  1  2  1  0  0  0
  2 14  1  0  0  0
  2  3  2  0  0  0
  3  4  1  0  0  0
  4  5  1  0  0  0
  5 11  1  0  0  0
  5  6  1  0  0  0
  6  7  1  0  0  0
  7  8  1  0  0  0
  8  9  1  0  0  0
  8 10  1  0  0  0
 10 11  1  0  0  0
  3 12  1  0  0  0
 12 13  2  0  0  0
 13 14  1  0  0  0
 14 15  1  0  0  0
 15 20  1  0  0  0
 15 16  2  0  0  0
 16 17  1  0  0  0
 17 18  2  0  0  0
 18 19  1  0  0  0
 19 20  2  0  0  0
M  END
>  <Entry>
220

>  <title>
14-3020

>  <rigid docking scores>
-16.6372

>  <InChIKey>
XRJFUZYVKHDXNI-UHFFFAOYSA-N

$$$$
atoms 20 bonds 22
dotmatics
mol io
 20 22  0  0  0  0  0  0  0  0999 V2000
   -2.3156    0.9718    0.0000 O   0  0  0  0  0  0  0  0  0  0  0  0
   -1.5994    1.3853    0.0000 S   0  0  0  0  0  0  0  0  0  0  0  0
   -0.8832    1.7988    0.0000 O   0  0  0  0  0  0  0  0  0  0  0  0
   -1.1859    0.6691    0.0000 N   0  0  0  0  0  0  0  0  0  0  0  0
   -0.3589    0.6691    0.0000 C   0  0  0  0  0  0  0  0  0  0  0  0
    0.1272    1.3381    0.0000 N   0  0  0  0  0  0  0  0  0  0  0  0
    0.9137    1.0826    0.0000 C   0  0  0  0  0  0  0  0  0  0  0  0
    1.5828    1.5687    0.0000 C   0  0  0  0  0  0  0  0  0  0  0  0
    1.4963    2.3911    0.0000 C   0  0  0  0  0  0  0  0  0  0  0  0
    2.1654    2.8772    0.0000 C   0  0  0  0  0  0  0  0  0  0  0  0
    2.9209    2.5409    0.0000 N   0  0  0  0  0  0  0  0  0  0  0  0
    3.0073    1.7184    0.0000 C   0  0  0  0  0  0  0  0  0  0  0  0
    2.3383    1.2323    0.0000 C   0  0  0  0  0  0  0  0  0  0  0  0
    0.9137    0.2556    0.0000 C   0  0  0  0  0  0  0  0  0  0  0  0
    0.1272   -0.0000    0.0000 S   0  0  0  0  0  0  0  0  0  0  0  0
   -2.0129    2.1015    0.0000 C   0  0  0  0  0  0  0  0  0  0  0  0
   -2.8354    2.1879    0.0000 C   0  0  0  0  0  0  0  0  0  0  0  0
   -3.0073    2.9968    0.0000 C   0  0  0  0  0  0  0  0  0  0  0  0
   -2.2911    3.4103    0.0000 C   0  0  0  0  0  0  0  0  0  0  0  0
   -1.6765    2.8570    0.0000 S   0  0  0  0  0  0  0  0  0  0  0  0
  1  2  2  0  0  0
  2  3  2  0  0  0
  2  4  1  0  0  0
  4  5  1  0  0  0
  5 15  1  0  0  0
  5  6  2  0  0  0
  6  7  1  0  0  0
  7  8  1  0  0  0
  8 13  1  0  0  0
  8  9  2  0  0  0
  9 10  1  0  0  0
 10 11  2  0  0  0
 11 12  1  0  0  0
 12 13  2  0  0  0
  7 14  2  0  0  0
 14 15  1  0  0  0
  2 16  1  0  0  0
 16 20  1  0  0  0
 16 17  2  0  0  0
 17 18  1  0  0  0
 18 19  2  0  0  0
 19 20  1  0  0  0
M  END
>  <Entry>
221

>  <title>
14-3429

>  <rigid docking scores>
-16.2038

>  <InChIKey>
FQVCLUVQQACMBY-UHFFFAOYSA-N

>  <Pubchem>
110440549

$$$$
atoms 24 bonds 26
dotmatics
mol io
 24 26  0  0  0  0  0  0  0  0999 V2000
    7.1651    1.1583    0.0000 O   0  0  0  0  0  0  0  0  0  0  0  0
    7.1658    0.3313    0.0000 C   0  0  0  0  0  0  0  0  0  0  0  0
    7.8823   -0.0816    0.0000 C   0  0  0  0  0  0  0  0  0  0  0  0
    8.5982    0.3325    0.0000 C   0  0  0  0  0  0  0  0  0  0  0  0
    8.6839    1.1551    0.0000 C   0  0  0  0  0  0  0  0  0  0  0  0
    9.4927    1.3277    0.0000 C   0  0  0  0  0  0  0  0  0  0  0  0
    9.9068    0.6119    0.0000 C   0  0  0  0  0  0  0  0  0  0  0  0
    9.3540   -0.0032    0.0000 S   0  0  0  0  0  0  0  0  0  0  0  0
    6.4499   -0.0828    0.0000 N   0  0  0  0  0  0  0  0  0  0  0  0
    5.7334    0.3300    0.0000 C   0  0  0  0  0  0  0  0  0  0  0  0
    5.0175   -0.0841    0.0000 C   0  0  0  0  0  0  0  0  0  0  0  0
    4.3010    0.3288    0.0000 C   0  0  0  0  0  0  0  0  0  0  0  0
    4.3003    1.1558    0.0000 O   0  0  0  0  0  0  0  0  0  0  0  0
    3.5851   -0.0853    0.0000 N   0  0  0  0  0  0  0  0  0  0  0  0
    3.5851   -0.9136    0.0000 C   0  0  0  0  0  0  0  0  0  0  0  0
    2.8693   -1.3277    0.0000 C   0  0  0  0  0  0  0  0  0  0  0  0
    2.1475   -0.9136    0.0000 C   0  0  0  0  0  0  0  0  0  0  0  0
    1.4317   -1.3277    0.0000 C   0  0  0  0  0  0  0  0  0  0  0  0
    0.7158   -0.9136    0.0000 C   0  0  0  0  0  0  0  0  0  0  0  0
    0.7158   -0.0853    0.0000 C   0  0  0  0  0  0  0  0  0  0  0  0
    0.0000    0.3288    0.0000 O   0  0  0  0  0  0  0  0  0  0  0  0
    1.4317    0.3288    0.0000 C   0  0  0  0  0  0  0  0  0  0  0  0
    2.1475   -0.0853    0.0000 C   0  0  0  0  0  0  0  0  0  0  0  0
    2.8693    0.3288    0.0000 C   0  0  0  0  0  0  0  0  0  0  0  0
  1  2  2  0  0  0
  2  3  1  0  0  0
  3  4  1  0  0  0
  4  8  1  0  0  0
  4  5  2  0  0  0
  5  6  1  0  0  0
  6  7  2  0  0  0
  7  8  1  0  0  0
  2  9  1  0  0  0
  9 10  1  0  0  0
 10 11  1  0  0  0
 11 12  1  0  0  0
 12 13  2  0  0  0
 12 14  1  0  0  0
 14 24  1  0  0  0
 14 15  1  0  0  0
 15 16  1  0  0  0
 16 17  1  0  0  0
 17 23  1  0  0  0
 17 18  2  0  0  0
 18 19  1  0  0  0
 19 20  2  0  0  0
 20 21  1  0  0  0
 20 22  1  0  0  0
 22 23  2  0  0  0
 23 24  1  0  0  0
M  END
>  <Entry>
222

>  <title>
14-3510

>  <rigid docking scores>
-15.5168

>  <InChIKey>
RIESSNLJIAAUIO-UHFFFAOYSA-N

$$$$
atoms 21 bonds 23
dotmatics
mol io
 21 23  0  0  0  0  0  0  0  0999 V2000
   -3.1512    2.3256    0.0000 C   0  0  0  0  0  0  0  0  0  0  0  0
   -2.3242    2.3256    0.0000 N   0  0  0  0  0  0  0  0  0  0  0  0
   -1.9654    3.0707    0.0000 C   0  0  0  0  0  0  0  0  0  0  0  0
   -1.1591    3.2547    0.0000 C   0  0  0  0  0  0  0  0  0  0  0  0
   -0.5125    2.7391    0.0000 N   0  0  0  0  0  0  0  0  0  0  0  0
    0.2326    3.0979    0.0000 C   0  0  0  0  0  0  0  0  0  0  0  0
    0.2944    3.9226    0.0000 O   0  0  0  0  0  0  0  0  0  0  0  0
    0.9159    2.6321    0.0000 N   0  0  0  0  0  0  0  0  0  0  0  0
    1.6610    2.9909    0.0000 C   0  0  0  0  0  0  0  0  0  0  0  0
    1.7228    3.8156    0.0000 C   0  0  0  0  0  0  0  0  0  0  0  0
    2.4679    4.1744    0.0000 C   0  0  0  0  0  0  0  0  0  0  0  0
    3.1512    3.7085    0.0000 C   0  0  0  0  0  0  0  0  0  0  0  0
    3.0894    2.8839    0.0000 C   0  0  0  0  0  0  0  0  0  0  0  0
    2.3443    2.5250    0.0000 C   0  0  0  0  0  0  0  0  0  0  0  0
   -0.5125    1.9121    0.0000 C   0  0  0  0  0  0  0  0  0  0  0  0
   -1.1591    1.3965    0.0000 C   0  0  0  0  0  0  0  0  0  0  0  0
   -0.9153    0.6062    0.0000 C   0  0  0  0  0  0  0  0  0  0  0  0
   -1.4778    0.0000    0.0000 C   0  0  0  0  0  0  0  0  0  0  0  0
   -2.2841    0.1840    0.0000 C   0  0  0  0  0  0  0  0  0  0  0  0
   -2.5279    0.9743    0.0000 N   0  0  0  0  0  0  0  0  0  0  0  0
   -1.9654    1.5805    0.0000 C   0  0  0  0  0  0  0  0  0  0  0  0
  1  2  1  0  0  0
  2 21  1  0  0  0
  2  3  1  0  0  0
  3  4  1  0  0  0
  4  5  1  0  0  0
  5  6  1  0  0  0
  6  7  2  0  0  0
  6  8  1  0  0  0
  8  9  1  0  0  0
  9 14  1  0  0  0
  9 10  2  0  0  0
 10 11  1  0  0  0
 11 12  2  0  0  0
 12 13  1  0  0  0
 13 14  2  0  0  0
  5 15  1  0  0  0
 15 16  1  0  0  0
 16 21  1  0  0  0
 16 17  2  0  0  0
 17 18  1  0  0  0
 18 19  2  0  0  0
 19 20  1  0  0  0
 20 21  2  0  0  0
M  END
>  <Entry>
223

>  <title>
14-3755

>  <rigid docking scores>
-15.517

>  <InChIKey>
PYXJAZRTUWJHKQ-UHFFFAOYSA-N

$$$$
atoms 18 bonds 20
dotmatics
mol io
 18 20  0  0  0  0  0  0  0  0999 V2000
   -1.4096    2.1015    0.0000 O   0  0  0  0  0  0  0  0  0  0  0  0
   -1.8231    1.3853    0.0000 C   0  0  0  0  0  0  0  0  0  0  0  0
   -1.4096    0.6691    0.0000 N   0  0  0  0  0  0  0  0  0  0  0  0
   -0.5826    0.6691    0.0000 C   0  0  0  0  0  0  0  0  0  0  0  0
   -0.0965    1.3381    0.0000 N   0  0  0  0  0  0  0  0  0  0  0  0
    0.6900    1.0826    0.0000 C   0  0  0  0  0  0  0  0  0  0  0  0
    1.3591    1.5687    0.0000 C   0  0  0  0  0  0  0  0  0  0  0  0
    1.2727    2.3911    0.0000 C   0  0  0  0  0  0  0  0  0  0  0  0
    1.9417    2.8772    0.0000 C   0  0  0  0  0  0  0  0  0  0  0  0
    2.6972    2.5409    0.0000 C   0  0  0  0  0  0  0  0  0  0  0  0
    3.3663    3.0270    0.0000 F   0  0  0  0  0  0  0  0  0  0  0  0
    2.7837    1.7184    0.0000 C   0  0  0  0  0  0  0  0  0  0  0  0
    2.1146    1.2323    0.0000 C   0  0  0  0  0  0  0  0  0  0  0  0
    0.6900    0.2556    0.0000 C   0  0  0  0  0  0  0  0  0  0  0  0
   -0.0965    0.0000    0.0000 S   0  0  0  0  0  0  0  0  0  0  0  0
   -2.6501    1.3853    0.0000 C   0  0  0  0  0  0  0  0  0  0  0  0
   -3.3663    0.9718    0.0000 C   0  0  0  0  0  0  0  0  0  0  0  0
   -3.3663    1.7988    0.0000 C   0  0  0  0  0  0  0  0  0  0  0  0
  1  2  2  0  0  0
  2  3  1  0  0  0
  3  4  1  0  0  0
  4 15  1  0  0  0
  4  5  2  0  0  0
  5  6  1  0  0  0
  6  7  1  0  0  0
  7 13  1  0  0  0
  7  8  2  0  0  0
  8  9  1  0  0  0
  9 10  2  0  0  0
 10 11  1  0  0  0
 10 12  1  0  0  0
 12 13  2  0  0  0
  6 14  2  0  0  0
 14 15  1  0  0  0
  2 16  1  0  0  0
 16 18  1  0  0  0
 16 17  1  0  0  0
 17 18  1  0  0  0
M  END
>  <Entry>
224

>  <title>
14-4264

>  <rigid docking scores>
-18.1844

>  <InChIKey>
PDWGUYWTPBDQNI-UHFFFAOYSA-N

>  <ZINC>
ZINC000000903403

>  <eMolecules>
1095164

>  <Pubchem>
1153685

>  <Mcule>
MCULE-9390776949

>  <MolPort>
MolPort-001-031-015

$$$$
atoms 23 bonds 25
dotmatics
mol io
 23 25  0  0  0  0  0  0  0  0999 V2000
    5.2554    1.5930    0.0000 C   0  0  0  0  0  0  0  0  0  0  0  0
    5.2554    0.7660    0.0000 N   0  0  0  0  0  0  0  0  0  0  0  0
    4.5392    0.3525    0.0000 C   0  0  0  0  0  0  0  0  0  0  0  0
    3.8230    0.7660    0.0000 O   0  0  0  0  0  0  0  0  0  0  0  0
    4.5392   -0.4745    0.0000 C   0  0  0  0  0  0  0  0  0  0  0  0
    5.2554   -0.8880    0.0000 C   0  0  0  0  0  0  0  0  0  0  0  0
    5.2554   -1.7150    0.0000 C   0  0  0  0  0  0  0  0  0  0  0  0
    4.5392   -2.1285    0.0000 C   0  0  0  0  0  0  0  0  0  0  0  0
    3.8230   -1.7150    0.0000 N   0  0  0  0  0  0  0  0  0  0  0  0
    3.1068   -2.1285    0.0000 C   0  0  0  0  0  0  0  0  0  0  0  0
    2.3906   -1.7150    0.0000 C   0  0  0  0  0  0  0  0  0  0  0  0
    1.6351   -2.0514    0.0000 C   0  0  0  0  0  0  0  0  0  0  0  0
    1.0817   -1.4368    0.0000 O   0  0  0  0  0  0  0  0  0  0  0  0
    1.4952   -0.7206    0.0000 C   0  0  0  0  0  0  0  0  0  0  0  0
    1.1588    0.0349    0.0000 C   0  0  0  0  0  0  0  0  0  0  0  0
    0.3364    0.1213    0.0000 C   0  0  0  0  0  0  0  0  0  0  0  0
    0.0000    0.8768    0.0000 C   0  0  0  0  0  0  0  0  0  0  0  0
    0.4861    1.5459    0.0000 C   0  0  0  0  0  0  0  0  0  0  0  0
    1.3086    1.4595    0.0000 C   0  0  0  0  0  0  0  0  0  0  0  0
    1.7947    2.1285    0.0000 F   0  0  0  0  0  0  0  0  0  0  0  0
    1.6449    0.7040    0.0000 C   0  0  0  0  0  0  0  0  0  0  0  0
    2.3041   -0.8925    0.0000 N   0  0  0  0  0  0  0  0  0  0  0  0
    3.8230   -0.8880    0.0000 C   0  0  0  0  0  0  0  0  0  0  0  0
  1  2  1  0  0  0
  2  3  1  0  0  0
  3  4  2  0  0  0
  3  5  1  0  0  0
  5 23  1  0  0  0
  5  6  1  0  0  0
  6  7  1  0  0  0
  7  8  1  0  0  0
  8  9  1  0  0  0
  9 10  1  0  0  0
 10 11  1  0  0  0
 11 22  1  0  0  0
 11 12  2  0  0  0
 12 13  1  0  0  0
 13 14  1  0  0  0
 14 15  1  0  0  0
 15 21  1  0  0  0
 15 16  2  0  0  0
 16 17  1  0  0  0
 17 18  2  0  0  0
 18 19  1  0  0  0
 19 20  1  0  0  0
 19 21  2  0  0  0
 14 22  2  0  0  0
  9 23  1  0  0  0
M  END
>  <Entry>
225

>  <title>
14-4365

>  <rigid docking scores>
-18.6073

>  <InChIKey>
NMBKCEPLZJVKFG-UHFFFAOYSA-N

>  <Mcule>
MCULE-9747639276

$$$$
atoms 22 bonds 23
dotmatics
mol io
 22 23  0  0  0  0  0  0  0  0999 V2000
    1.4324    1.6540    0.0000 C   0  0  0  0  0  0  0  0  0  0  0  0
    1.4324    0.8270    0.0000 N   0  0  0  0  0  0  0  0  0  0  0  0
    2.1486    0.4135    0.0000 C   0  0  0  0  0  0  0  0  0  0  0  0
    2.8648    0.8270    0.0000 C   0  0  0  0  0  0  0  0  0  0  0  0
    3.5810    0.4135    0.0000 C   0  0  0  0  0  0  0  0  0  0  0  0
    3.5810   -0.4135    0.0000 O   0  0  0  0  0  0  0  0  0  0  0  0
    4.2972    0.8270    0.0000 N   0  0  0  0  0  0  0  0  0  0  0  0
    5.0134    0.4135    0.0000 C   0  0  0  0  0  0  0  0  0  0  0  0
    5.7296    0.8270    0.0000 C   0  0  0  0  0  0  0  0  0  0  0  0
    6.4458    0.4135    0.0000 C   0  0  0  0  0  0  0  0  0  0  0  0
    6.4458   -0.4135    0.0000 C   0  0  0  0  0  0  0  0  0  0  0  0
    7.1620   -0.8270    0.0000 F   0  0  0  0  0  0  0  0  0  0  0  0
    5.7296   -0.8270    0.0000 C   0  0  0  0  0  0  0  0  0  0  0  0
    5.7296   -1.6540    0.0000 F   0  0  0  0  0  0  0  0  0  0  0  0
    5.0134   -0.4135    0.0000 C   0  0  0  0  0  0  0  0  0  0  0  0
    2.1486   -0.4135    0.0000 C   0  0  0  0  0  0  0  0  0  0  0  0
    1.4324   -0.8270    0.0000 C   0  0  0  0  0  0  0  0  0  0  0  0
    1.4324   -1.6540    0.0000 O   0  0  0  0  0  0  0  0  0  0  0  0
    0.7162   -0.4135    0.0000 N   0  0  0  0  0  0  0  0  0  0  0  0
    0.0000   -0.8270    0.0000 C   0  0  0  0  0  0  0  0  0  0  0  0
    0.7162    0.4135    0.0000 C   0  0  0  0  0  0  0  0  0  0  0  0
    0.0000    0.8270    0.0000 O   0  0  0  0  0  0  0  0  0  0  0  0
  1  2  1  0  0  0
  2 21  1  0  0  0
  2  3  1  0  0  0
  3  4  1  0  0  0
  4  5  1  0  0  0
  5  6  2  0  0  0
  5  7  1  0  0  0
  7  8  1  0  0  0
  8 15  1  0  0  0
  8  9  2  0  0  0
  9 10  1  0  0  0
 10 11  2  0  0  0
 11 12  1  0  0  0
 11 13  1  0  0  0
 13 14  1  0  0  0
 13 15  2  0  0  0
  3 16  2  0  0  0
 16 17  1  0  0  0
 17 18  2  0  0  0
 17 19  1  0  0  0
 19 20  1  0  0  0
 19 21  1  0  0  0
 21 22  2  0  0  0
M  END
>  <Entry>
226

>  <title>
14-4597

>  <rigid docking scores>
-15.7278

>  <InChIKey>
CKBNGAUYCGIODW-UHFFFAOYSA-N

$$$$
atoms 22 bonds 24
dotmatics
mol io
 22 24  0  0  0  0  0  0  0  0999 V2000
    0.0291    0.7758    0.0000 O   0  0  0  0  0  0  0  0  0  0  0  0
    0.4426    1.4920    0.0000 C   0  0  0  0  0  0  0  0  0  0  0  0
    1.2696    1.4920    0.0000 C   0  0  0  0  0  0  0  0  0  0  0  0
    1.6831    0.7758    0.0000 O   0  0  0  0  0  0  0  0  0  0  0  0
    2.5101    0.7758    0.0000 C   0  0  0  0  0  0  0  0  0  0  0  0
    2.9236    1.4920    0.0000 C   0  0  0  0  0  0  0  0  0  0  0  0
    3.7506    1.4920    0.0000 C   0  0  0  0  0  0  0  0  0  0  0  0
    4.1641    0.7758    0.0000 C   0  0  0  0  0  0  0  0  0  0  0  0
    3.7506    0.0596    0.0000 C   0  0  0  0  0  0  0  0  0  0  0  0
    2.9236    0.0596    0.0000 C   0  0  0  0  0  0  0  0  0  0  0  0
    0.0291    2.2082    0.0000 N   0  0  0  0  0  0  0  0  0  0  0  0
   -0.7979    2.2082    0.0000 C   0  0  0  0  0  0  0  0  0  0  0  0
   -1.2840    1.5391    0.0000 N   0  0  0  0  0  0  0  0  0  0  0  0
   -2.0705    1.7947    0.0000 C   0  0  0  0  0  0  0  0  0  0  0  0
   -2.7396    1.3086    0.0000 C   0  0  0  0  0  0  0  0  0  0  0  0
   -2.6531    0.4861    0.0000 C   0  0  0  0  0  0  0  0  0  0  0  0
   -3.3222    0.0000    0.0000 C   0  0  0  0  0  0  0  0  0  0  0  0
   -4.0777    0.3364    0.0000 N   0  0  0  0  0  0  0  0  0  0  0  0
   -4.1641    1.1588    0.0000 C   0  0  0  0  0  0  0  0  0  0  0  0
   -3.4951    1.6449    0.0000 C   0  0  0  0  0  0  0  0  0  0  0  0
   -2.0705    2.6217    0.0000 C   0  0  0  0  0  0  0  0  0  0  0  0
   -1.2840    2.8772    0.0000 S   0  0  0  0  0  0  0  0  0  0  0  0
  1  2  2  0  0  0
  2  3  1  0  0  0
  3  4  1  0  0  0
  4  5  1  0  0  0
  5 10  1  0  0  0
  5  6  2  0  0  0
  6  7  1  0  0  0
  7  8  2  0  0  0
  8  9  1  0  0  0
  9 10  2  0  0  0
  2 11  1  0  0  0
 11 12  1  0  0  0
 12 22  1  0  0  0
 12 13  2  0  0  0
 13 14  1  0  0  0
 14 15  1  0  0  0
 15 20  1  0  0  0
 15 16  2  0  0  0
 16 17  1  0  0  0
 17 18  2  0  0  0
 18 19  1  0  0  0
 19 20  2  0  0  0
 14 21  2  0  0  0
 21 22  1  0  0  0
M  END
>  <Entry>
227

>  <title>
14-4951

>  <rigid docking scores>
-15.42

>  <InChIKey>
GTZRWNTWJYHRKN-UHFFFAOYSA-N

>  <ChEMBL>
CHEMBL1534379

>  <ZINC>
ZINC000004063227

>  <eMolecules>
22706888

>  <SureChEMBL Patents>
SCHEMBL3255620

>  <Pubchem>
4658609

>  <Mcule>
MCULE-6276000717

>  <MolPort>
MolPort-003-052-237

$$$$
atoms 20 bonds 22
dotmatics
mol io
 20 22  0  0  0  0  0  0  0  0999 V2000
   -2.7255    4.6038    0.0000 C   0  0  0  0  0  0  0  0  0  0  0  0
   -1.8985    4.6038    0.0000 N   0  0  0  0  0  0  0  0  0  0  0  0
   -1.4124    5.2729    0.0000 C   0  0  0  0  0  0  0  0  0  0  0  0
   -0.6258    5.0173    0.0000 C   0  0  0  0  0  0  0  0  0  0  0  0
   -0.6258    4.1903    0.0000 C   0  0  0  0  0  0  0  0  0  0  0  0
    0.0432    3.7042    0.0000 N   0  0  0  0  0  0  0  0  0  0  0  0
    0.7987    4.0406    0.0000 C   0  0  0  0  0  0  0  0  0  0  0  0
   -0.0432    2.8818    0.0000 C   0  0  0  0  0  0  0  0  0  0  0  0
    0.6258    2.3957    0.0000 C   0  0  0  0  0  0  0  0  0  0  0  0
    1.4124    2.6512    0.0000 C   0  0  0  0  0  0  0  0  0  0  0  0
    1.8985    1.9822    0.0000 N   0  0  0  0  0  0  0  0  0  0  0  0
    2.7255    1.9822    0.0000 C   0  0  0  0  0  0  0  0  0  0  0  0
    1.4124    1.3131    0.0000 N   0  0  0  0  0  0  0  0  0  0  0  0
    0.6258    1.5687    0.0000 C   0  0  0  0  0  0  0  0  0  0  0  0
   -0.0432    1.0826    0.0000 C   0  0  0  0  0  0  0  0  0  0  0  0
   -0.0432    0.2556    0.0000 C   0  0  0  0  0  0  0  0  0  0  0  0
   -0.8297    0.0000    0.0000 C   0  0  0  0  0  0  0  0  0  0  0  0
   -1.3158    0.6691    0.0000 S   0  0  0  0  0  0  0  0  0  0  0  0
   -0.8297    1.3381    0.0000 C   0  0  0  0  0  0  0  0  0  0  0  0
   -1.4124    3.9348    0.0000 C   0  0  0  0  0  0  0  0  0  0  0  0
  1  2  1  0  0  0
  2 20  1  0  0  0
  2  3  1  0  0  0
  3  4  1  0  0  0
  4  5  1  0  0  0
  5  6  1  0  0  0
  6  7  1  0  0  0
  6  8  1  0  0  0
  8  9  1  0  0  0
  9 14  1  0  0  0
  9 10  2  0  0  0
 10 11  1  0  0  0
 11 12  1  0  0  0
 11 13  1  0  0  0
 13 14  2  0  0  0
 14 15  1  0  0  0
 15 19  2  0  0  0
 15 16  1  0  0  0
 16 17  2  0  0  0
 17 18  1  0  0  0
 18 19  1  0  0  0
  5 20  1  0  0  0
M  END
>  <Entry>
228

>  <title>
14-5533

>  <rigid docking scores>
-15.6025

>  <InChIKey>
CURKDNQLSVPDQS-UHFFFAOYSA-N

$$$$
atoms 22 bonds 24
dotmatics
mol io
 22 24  0  0  0  0  0  0  0  0999 V2000
    0.2752    4.3895    0.0000 C   0  0  0  0  0  0  0  0  0  0  0  0
    0.6887    3.6733    0.0000 O   0  0  0  0  0  0  0  0  0  0  0  0
    1.5157    3.6733    0.0000 C   0  0  0  0  0  0  0  0  0  0  0  0
    1.9292    4.3895    0.0000 C   0  0  0  0  0  0  0  0  0  0  0  0
    2.7562    4.3895    0.0000 C   0  0  0  0  0  0  0  0  0  0  0  0
    3.1697    3.6733    0.0000 C   0  0  0  0  0  0  0  0  0  0  0  0
    2.7562    2.9571    0.0000 C   0  0  0  0  0  0  0  0  0  0  0  0
    1.9292    2.9571    0.0000 C   0  0  0  0  0  0  0  0  0  0  0  0
    1.5157    2.2409    0.0000 C   0  0  0  0  0  0  0  0  0  0  0  0
    1.8521    1.4854    0.0000 N   0  0  0  0  0  0  0  0  0  0  0  0
    1.2375    0.9320    0.0000 N   0  0  0  0  0  0  0  0  0  0  0  0
    0.5213    1.3455    0.0000 N   0  0  0  0  0  0  0  0  0  0  0  0
   -0.2342    1.0091    0.0000 C   0  0  0  0  0  0  0  0  0  0  0  0
   -0.9032    1.4952    0.0000 C   0  0  0  0  0  0  0  0  0  0  0  0
   -0.8168    2.3177    0.0000 O   0  0  0  0  0  0  0  0  0  0  0  0
   -1.6587    1.1588    0.0000 N   0  0  0  0  0  0  0  0  0  0  0  0
   -1.7452    0.3364    0.0000 C   0  0  0  0  0  0  0  0  0  0  0  0
   -2.5007    0.0000    0.0000 C   0  0  0  0  0  0  0  0  0  0  0  0
   -3.1697    0.4861    0.0000 O   0  0  0  0  0  0  0  0  0  0  0  0
   -3.0833    1.3086    0.0000 C   0  0  0  0  0  0  0  0  0  0  0  0
   -2.3278    1.6449    0.0000 C   0  0  0  0  0  0  0  0  0  0  0  0
    0.6933    2.1544    0.0000 N   0  0  0  0  0  0  0  0  0  0  0  0
  1  2  1  0  0  0
  2  3  1  0  0  0
  3  8  1  0  0  0
  3  4  2  0  0  0
  4  5  1  0  0  0
  5  6  2  0  0  0
  6  7  1  0  0  0
  7  8  2  0  0  0
  8  9  1  0  0  0
  9 22  2  0  0  0
  9 10  1  0  0  0
 10 11  2  0  0  0
 11 12  1  0  0  0
 12 13  1  0  0  0
 13 14  1  0  0  0
 14 15  2  0  0  0
 14 16  1  0  0  0
 16 21  1  0  0  0
 16 17  1  0  0  0
 17 18  1  0  0  0
 18 19  1  0  0  0
 19 20  1  0  0  0
 20 21  1  0  0  0
 12 22  1  0  0  0
M  END
>  <Entry>
229

>  <title>
14-5660

>  <rigid docking scores>
-15.8139

>  <InChIKey>
ZGKLZJOORANESP-UHFFFAOYSA-N

$$$$
atoms 22 bonds 24
dotmatics
mol io
 22 24  0  0  0  0  0  0  0  0999 V2000
    6.2087   -2.1484    0.0000 N   0  0  0  0  0  0  0  0  0  0  0  0
    6.6222   -1.4322    0.0000 C   0  0  0  0  0  0  0  0  0  0  0  0
    7.4492   -1.4322    0.0000 O   0  0  0  0  0  0  0  0  0  0  0  0
    6.2087   -0.7160    0.0000 C   0  0  0  0  0  0  0  0  0  0  0  0
    5.3817   -0.7160    0.0000 C   0  0  0  0  0  0  0  0  0  0  0  0
    4.9682    0.0002    0.0000 N   0  0  0  0  0  0  0  0  0  0  0  0
    5.3817    0.7164    0.0000 C   0  0  0  0  0  0  0  0  0  0  0  0
    4.9682    1.4326    0.0000 N   0  0  0  0  0  0  0  0  0  0  0  0
    4.1412    1.4326    0.0000 C   0  0  0  0  0  0  0  0  0  0  0  0
    3.7271    0.7167    0.0000 C   0  0  0  0  0  0  0  0  0  0  0  0
    2.8989    0.7167    0.0000 C   0  0  0  0  0  0  0  0  0  0  0  0
    2.4847    1.4326    0.0000 C   0  0  0  0  0  0  0  0  0  0  0  0
    1.6565    1.4326    0.0000 N   0  0  0  0  0  0  0  0  0  0  0  0
    1.2424    0.7167    0.0000 C   0  0  0  0  0  0  0  0  0  0  0  0
    0.4141    0.7167    0.0000 C   0  0  0  0  0  0  0  0  0  0  0  0
    0.0000    1.4326    0.0000 O   0  0  0  0  0  0  0  0  0  0  0  0
    0.4141    2.1484    0.0000 C   0  0  0  0  0  0  0  0  0  0  0  0
    1.2424    2.1484    0.0000 C   0  0  0  0  0  0  0  0  0  0  0  0
    2.8989    2.1484    0.0000 C   0  0  0  0  0  0  0  0  0  0  0  0
    3.7271    2.1484    0.0000 C   0  0  0  0  0  0  0  0  0  0  0  0
    6.2087    0.7164    0.0000 N   0  0  0  0  0  0  0  0  0  0  0  0
    6.6222    0.0002    0.0000 C   0  0  0  0  0  0  0  0  0  0  0  0
  1  2  1  0  0  0
  2  3  2  0  0  0
  2  4  1  0  0  0
  4 22  1  0  0  0
  4  5  2  0  0  0
  5  6  1  0  0  0
  6  7  2  0  0  0
  7  8  1  0  0  0
  8  9  1  0  0  0
  9 20  1  0  0  0
  9 10  2  0  0  0
 10 11  1  0  0  0
 11 12  2  0  0  0
 12 13  1  0  0  0
 13 18  1  0  0  0
 13 14  1  0  0  0
 14 15  1  0  0  0
 15 16  1  0  0  0
 16 17  1  0  0  0
 17 18  1  0  0  0
 12 19  1  0  0  0
 19 20  2  0  0  0
  7 21  1  0  0  0
 21 22  2  0  0  0
M  END
>  <Entry>
230

>  <title>
14-6083

>  <rigid docking scores>
-15.6161

>  <InChIKey>
FNYHTSZAJQGAJF-UHFFFAOYSA-N

>  <Pubchem>
23071564

$$$$
atoms 19 bonds 21
dotmatics
mol io
 19 21  0  0  0  0  0  0  0  0999 V2000
    0.6665   -0.8417    0.0000 O   0  0  0  0  0  0  0  0  0  0  0  0
    1.3830   -0.4288    0.0000 C   0  0  0  0  0  0  0  0  0  0  0  0
    1.3838    0.3982    0.0000 N   0  0  0  0  0  0  0  0  0  0  0  0
    0.6679    0.8123    0.0000 C   0  0  0  0  0  0  0  0  0  0  0  0
    0.6686    1.6393    0.0000 C   0  0  0  0  0  0  0  0  0  0  0  0
    0.0000    2.1260    0.0000 C   0  0  0  0  0  0  0  0  0  0  0  0
    0.2562    2.9123    0.0000 C   0  0  0  0  0  0  0  0  0  0  0  0
    1.0832    2.9116    0.0000 C   0  0  0  0  0  0  0  0  0  0  0  0
    1.3381    2.1248    0.0000 O   0  0  0  0  0  0  0  0  0  0  0  0
    2.0989   -0.8429    0.0000 C   0  0  0  0  0  0  0  0  0  0  0  0
    2.0989   -1.6712    0.0000 C   0  0  0  0  0  0  0  0  0  0  0  0
    2.8147   -2.0853    0.0000 C   0  0  0  0  0  0  0  0  0  0  0  0
    2.8147   -2.9123    0.0000 Cl  0  0  0  0  0  0  0  0  0  0  0  0
    3.5306   -1.6712    0.0000 C   0  0  0  0  0  0  0  0  0  0  0  0
    4.3174   -1.9256    0.0000 N   0  0  0  0  0  0  0  0  0  0  0  0
    4.8084   -1.2571    0.0000 C   0  0  0  0  0  0  0  0  0  0  0  0
    4.3174   -0.5885    0.0000 N   0  0  0  0  0  0  0  0  0  0  0  0
    3.5306   -0.8429    0.0000 C   0  0  0  0  0  0  0  0  0  0  0  0
    2.8147   -0.4288    0.0000 C   0  0  0  0  0  0  0  0  0  0  0  0
  1  2  2  0  0  0
  2  3  1  0  0  0
  3  4  1  0  0  0
  4  5  1  0  0  0
  5  9  1  0  0  0
  5  6  1  0  0  0
  6  7  1  0  0  0
  7  8  1  0  0  0
  8  9  1  0  0  0
  2 10  1  0  0  0
 10 19  1  0  0  0
 10 11  2  0  0  0
 11 12  1  0  0  0
 12 13  1  0  0  0
 12 14  2  0  0  0
 14 18  1  0  0  0
 14 15  1  0  0  0
 15 16  1  0  0  0
 16 17  2  0  0  0
 17 18  1  0  0  0
 18 19  2  0  0  0
M  END
>  <Entry>
231

>  <title>
14-6887

>  <rigid docking scores>
-16.6307

>  <InChIKey>
FEMWIHFJQPHZSF-UHFFFAOYSA-N

$$$$
atoms 24 bonds 26
dotmatics
mol io
 24 26  0  0  0  0  0  0  0  0999 V2000
    4.3003   -2.6906    0.0000 C   0  0  0  0  0  0  0  0  0  0  0  0
    3.5844   -2.2764    0.0000 N   0  0  0  0  0  0  0  0  0  0  0  0
    3.5851   -1.4494    0.0000 C   0  0  0  0  0  0  0  0  0  0  0  0
    4.3017   -1.0366    0.0000 O   0  0  0  0  0  0  0  0  0  0  0  0
    2.8693   -1.0353    0.0000 C   0  0  0  0  0  0  0  0  0  0  0  0
    2.1534   -1.4494    0.0000 C   0  0  0  0  0  0  0  0  0  0  0  0
    1.4317   -1.0353    0.0000 C   0  0  0  0  0  0  0  0  0  0  0  0
    0.7158   -1.4494    0.0000 C   0  0  0  0  0  0  0  0  0  0  0  0
    0.0000   -1.0353    0.0000 C   0  0  0  0  0  0  0  0  0  0  0  0
    0.0000   -0.2071    0.0000 C   0  0  0  0  0  0  0  0  0  0  0  0
    0.7158    0.2071    0.0000 C   0  0  0  0  0  0  0  0  0  0  0  0
    1.4317   -0.2071    0.0000 C   0  0  0  0  0  0  0  0  0  0  0  0
    2.1534    0.2071    0.0000 C   0  0  0  0  0  0  0  0  0  0  0  0
    2.8693   -0.2071    0.0000 N   0  0  0  0  0  0  0  0  0  0  0  0
    3.5851    0.2071    0.0000 C   0  0  0  0  0  0  0  0  0  0  0  0
    3.5844    1.0341    0.0000 C   0  0  0  0  0  0  0  0  0  0  0  0
    2.8678    1.4469    0.0000 O   0  0  0  0  0  0  0  0  0  0  0  0
    4.3003    1.4482    0.0000 N   0  0  0  0  0  0  0  0  0  0  0  0
    4.2995    2.2752    0.0000 C   0  0  0  0  0  0  0  0  0  0  0  0
    5.0154    2.6893    0.0000 C   0  0  0  0  0  0  0  0  0  0  0  0
    5.7319    2.2764    0.0000 N   0  0  0  0  0  0  0  0  0  0  0  0
    6.4478    2.6906    0.0000 C   0  0  0  0  0  0  0  0  0  0  0  0
    5.7327    1.4494    0.0000 C   0  0  0  0  0  0  0  0  0  0  0  0
    5.0168    1.0353    0.0000 C   0  0  0  0  0  0  0  0  0  0  0  0
  1  2  1  0  0  0
  2  3  1  0  0  0
  3  4  2  0  0  0
  3  5  1  0  0  0
  5 14  1  0  0  0
  5  6  1  0  0  0
  6  7  1  0  0  0
  7 12  1  0  0  0
  7  8  2  0  0  0
  8  9  1  0  0  0
  9 10  2  0  0  0
 10 11  1  0  0  0
 11 12  2  0  0  0
 12 13  1  0  0  0
 13 14  1  0  0  0
 14 15  1  0  0  0
 15 16  1  0  0  0
 16 17  2  0  0  0
 16 18  1  0  0  0
 18 24  1  0  0  0
 18 19  1  0  0  0
 19 20  1  0  0  0
 20 21  1  0  0  0
 21 22  1  0  0  0
 21 23  1  0  0  0
 23 24  1  0  0  0
M  END
>  <Entry>
232

>  <title>
14-7092

>  <rigid docking scores>
-19.1789

>  <InChIKey>
DVOHUMPGQUQEPX-UHFFFAOYSA-N

$$$$
atoms 19 bonds 21
dotmatics
mol io
 19 21  0  0  0  0  0  0  0  0999 V2000
    4.4925    2.3580    0.0000 C   0  0  0  0  0  0  0  0  0  0  0  0
    4.4925    1.5310    0.0000 N   0  0  0  0  0  0  0  0  0  0  0  0
    5.2087    1.1175    0.0000 C   0  0  0  0  0  0  0  0  0  0  0  0
    5.2087    0.2905    0.0000 C   0  0  0  0  0  0  0  0  0  0  0  0
    4.4925   -0.1230    0.0000 N   0  0  0  0  0  0  0  0  0  0  0  0
    4.4925   -0.9500    0.0000 C   0  0  0  0  0  0  0  0  0  0  0  0
    3.7763   -1.3635    0.0000 C   0  0  0  0  0  0  0  0  0  0  0  0
    3.6898   -2.1860    0.0000 C   0  0  0  0  0  0  0  0  0  0  0  0
    2.8809   -2.3580    0.0000 C   0  0  0  0  0  0  0  0  0  0  0  0
    2.4674   -1.6418    0.0000 C   0  0  0  0  0  0  0  0  0  0  0  0
    1.6449   -1.5553    0.0000 C   0  0  0  0  0  0  0  0  0  0  0  0
    1.1588   -2.2244    0.0000 C   0  0  0  0  0  0  0  0  0  0  0  0
    0.3364   -2.1379    0.0000 C   0  0  0  0  0  0  0  0  0  0  0  0
    0.0000   -1.3824    0.0000 C   0  0  0  0  0  0  0  0  0  0  0  0
    0.4861   -0.7134    0.0000 C   0  0  0  0  0  0  0  0  0  0  0  0
    1.3086   -0.7998    0.0000 N   0  0  0  0  0  0  0  0  0  0  0  0
    3.0208   -1.0272    0.0000 O   0  0  0  0  0  0  0  0  0  0  0  0
    3.7763    0.2905    0.0000 C   0  0  0  0  0  0  0  0  0  0  0  0
    3.7763    1.1175    0.0000 C   0  0  0  0  0  0  0  0  0  0  0  0
  1  2  1  0  0  0
  2 19  1  0  0  0
  2  3  1  0  0  0
  3  4  1  0  0  0
  4  5  1  0  0  0
  5  6  1  0  0  0
  6  7  1  0  0  0
  7 17  1  0  0  0
  7  8  2  0  0  0
  8  9  1  0  0  0
  9 10  2  0  0  0
 10 11  1  0  0  0
 11 16  1  0  0  0
 11 12  2  0  0  0
 12 13  1  0  0  0
 13 14  2  0  0  0
 14 15  1  0  0  0
 15 16  2  0  0  0
 10 17  1  0  0  0
  5 18  1  0  0  0
 18 19  1  0  0  0
M  END
>  <Entry>
233

>  <title>
14-7318

>  <rigid docking scores>
-15.9347

>  <InChIKey>
MYVTYWPODAHJPO-UHFFFAOYSA-N

$$$$
atoms 20 bonds 22
dotmatics
mol io
 20 22  0  0  0  0  0  0  0  0999 V2000
   -0.6494    3.6406    0.0000 O   0  0  0  0  0  0  0  0  0  0  0  0
   -1.0629    2.9244    0.0000 C   0  0  0  0  0  0  0  0  0  0  0  0
   -0.6494    2.2082    0.0000 C   0  0  0  0  0  0  0  0  0  0  0  0
    0.1776    2.2082    0.0000 N   0  0  0  0  0  0  0  0  0  0  0  0
    0.6637    2.8772    0.0000 N   0  0  0  0  0  0  0  0  0  0  0  0
    1.4503    2.6217    0.0000 N   0  0  0  0  0  0  0  0  0  0  0  0
    1.4503    1.7947    0.0000 C   0  0  0  0  0  0  0  0  0  0  0  0
    2.1193    1.3086    0.0000 C   0  0  0  0  0  0  0  0  0  0  0  0
    2.8748    1.6449    0.0000 C   0  0  0  0  0  0  0  0  0  0  0  0
    3.5439    1.1588    0.0000 C   0  0  0  0  0  0  0  0  0  0  0  0
    3.4574    0.3364    0.0000 C   0  0  0  0  0  0  0  0  0  0  0  0
    2.7019   -0.0000    0.0000 C   0  0  0  0  0  0  0  0  0  0  0  0
    2.0329    0.4861    0.0000 C   0  0  0  0  0  0  0  0  0  0  0  0
    0.6637    1.5391    0.0000 N   0  0  0  0  0  0  0  0  0  0  0  0
   -1.8899    2.9244    0.0000 N   0  0  0  0  0  0  0  0  0  0  0  0
   -2.3034    2.2082    0.0000 C   0  0  0  0  0  0  0  0  0  0  0  0
   -3.1304    2.2082    0.0000 C   0  0  0  0  0  0  0  0  0  0  0  0
   -3.5439    2.9244    0.0000 C   0  0  0  0  0  0  0  0  0  0  0  0
   -3.1304    3.6406    0.0000 C   0  0  0  0  0  0  0  0  0  0  0  0
   -2.3034    3.6406    0.0000 C   0  0  0  0  0  0  0  0  0  0  0  0
  1  2  2  0  0  0
  2  3  1  0  0  0
  3  4  1  0  0  0
  4 14  1  0  0  0
  4  5  1  0  0  0
  5  6  2  0  0  0
  6  7  1  0  0  0
  7  8  1  0  0  0
  8 13  1  0  0  0
  8  9  2  0  0  0
  9 10  1  0  0  0
 10 11  2  0  0  0
 11 12  1  0  0  0
 12 13  2  0  0  0
  7 14  2  0  0  0
  2 15  1  0  0  0
 15 20  1  0  0  0
 15 16  1  0  0  0
 16 17  1  0  0  0
 17 18  1  0  0  0
 18 19  1  0  0  0
 19 20  1  0  0  0
M  END
>  <Entry>
234

>  <title>
14-7439

>  <rigid docking scores>
-15.4567

>  <InChIKey>
RFZRMTINPYRMPT-UHFFFAOYSA-N

>  <ChEMBL>
CHEMBL1562970

>  <ZINC>
ZINC000000422740

>  <eMolecules>
3607067

>  <Pubchem>
866087

>  <Mcule>
MCULE-8423275716

>  <MolPort>
MolPort-000-009-125

$$$$
atoms 20 bonds 22
dotmatics
mol io
 20 22  0  0  0  0  0  0  0  0999 V2000
    1.0820    2.1486    0.0000 O   0  0  0  0  0  0  0  0  0  0  0  0
    0.6685    1.4324    0.0000 C   0  0  0  0  0  0  0  0  0  0  0  0
    1.0820    0.7162    0.0000 N   0  0  0  0  0  0  0  0  0  0  0  0
    1.9090    0.7162    0.0000 C   0  0  0  0  0  0  0  0  0  0  0  0
    2.3225    1.4324    0.0000 C   0  0  0  0  0  0  0  0  0  0  0  0
    3.1495    1.4324    0.0000 C   0  0  0  0  0  0  0  0  0  0  0  0
    3.5630    0.7162    0.0000 C   0  0  0  0  0  0  0  0  0  0  0  0
    3.1495   -0.0000    0.0000 C   0  0  0  0  0  0  0  0  0  0  0  0
    2.3225   -0.0000    0.0000 C   0  0  0  0  0  0  0  0  0  0  0  0
   -0.1585    1.4324    0.0000 C   0  0  0  0  0  0  0  0  0  0  0  0
   -0.7433    0.8476    0.0000 C   0  0  0  0  0  0  0  0  0  0  0  0
   -1.3281    1.4324    0.0000 N   0  0  0  0  0  0  0  0  0  0  0  0
   -2.1551    1.4324    0.0000 C   0  0  0  0  0  0  0  0  0  0  0  0
   -2.5686    0.7162    0.0000 O   0  0  0  0  0  0  0  0  0  0  0  0
   -2.5686    2.1486    0.0000 C   0  0  0  0  0  0  0  0  0  0  0  0
   -3.3910    2.2351    0.0000 C   0  0  0  0  0  0  0  0  0  0  0  0
   -3.5630    3.0440    0.0000 C   0  0  0  0  0  0  0  0  0  0  0  0
   -2.8468    3.4575    0.0000 C   0  0  0  0  0  0  0  0  0  0  0  0
   -2.2322    2.9041    0.0000 O   0  0  0  0  0  0  0  0  0  0  0  0
   -0.7433    2.0172    0.0000 C   0  0  0  0  0  0  0  0  0  0  0  0
  1  2  2  0  0  0
  2  3  1  0  0  0
  3  4  1  0  0  0
  4  9  1  0  0  0
  4  5  2  0  0  0
  5  6  1  0  0  0
  6  7  2  0  0  0
  7  8  1  0  0  0
  8  9  2  0  0  0
  2 10  1  0  0  0
 10 20  1  0  0  0
 10 11  1  0  0  0
 11 12  1  0  0  0
 12 13  1  0  0  0
 13 14  2  0  0  0
 13 15  1  0  0  0
 15 19  1  0  0  0
 15 16  2  0  0  0
 16 17  1  0  0  0
 17 18  2  0  0  0
 18 19  1  0  0  0
 12 20  1  0  0  0
M  END
>  <Entry>
235

>  <title>
2-4292

>  <rigid docking scores>
-15.8361

>  <InChIKey>
FQCNONNMVAAVAX-UHFFFAOYSA-N

$$$$
atoms 21 bonds 23
dotmatics
mol io
 21 23  0  0  0  0  0  0  0  0999 V2000
    7.2039   -1.7283    0.0000 C   0  0  0  0  0  0  0  0  0  0  0  0
    6.3769   -1.7283    0.0000 N   0  0  0  0  0  0  0  0  0  0  0  0
    5.9634   -1.0121    0.0000 C   0  0  0  0  0  0  0  0  0  0  0  0
    6.3769   -0.2959    0.0000 O   0  0  0  0  0  0  0  0  0  0  0  0
    5.1364   -1.0121    0.0000 C   0  0  0  0  0  0  0  0  0  0  0  0
    4.7223   -1.7279    0.0000 C   0  0  0  0  0  0  0  0  0  0  0  0
    3.8941   -1.7279    0.0000 C   0  0  0  0  0  0  0  0  0  0  0  0
    3.4799   -1.0121    0.0000 C   0  0  0  0  0  0  0  0  0  0  0  0
    2.6517   -1.0121    0.0000 C   0  0  0  0  0  0  0  0  0  0  0  0
    2.2376   -1.7279    0.0000 C   0  0  0  0  0  0  0  0  0  0  0  0
    1.4093   -1.7279    0.0000 C   0  0  0  0  0  0  0  0  0  0  0  0
    0.9952   -1.0121    0.0000 C   0  0  0  0  0  0  0  0  0  0  0  0
    1.4093   -0.2962    0.0000 C   0  0  0  0  0  0  0  0  0  0  0  0
    0.9952    0.4196    0.0000 C   0  0  0  0  0  0  0  0  0  0  0  0
    0.1726    0.5054    0.0000 C   0  0  0  0  0  0  0  0  0  0  0  0
    0.0000    1.3141    0.0000 N   0  0  0  0  0  0  0  0  0  0  0  0
    0.7158    1.7283    0.0000 C   0  0  0  0  0  0  0  0  0  0  0  0
    1.3309    1.1754    0.0000 O   0  0  0  0  0  0  0  0  0  0  0  0
    2.2376   -0.2962    0.0000 C   0  0  0  0  0  0  0  0  0  0  0  0
    3.8941   -0.2962    0.0000 N   0  0  0  0  0  0  0  0  0  0  0  0
    4.7223   -0.2962    0.0000 C   0  0  0  0  0  0  0  0  0  0  0  0
  1  2  1  0  0  0
  2  3  1  0  0  0
  3  4  2  0  0  0
  3  5  1  0  0  0
  5 21  1  0  0  0
  5  6  2  0  0  0
  6  7  1  0  0  0
  7  8  2  0  0  0
  8  9  1  0  0  0
  9 19  1  0  0  0
  9 10  2  0  0  0
 10 11  1  0  0  0
 11 12  2  0  0  0
 12 13  1  0  0  0
 13 14  1  0  0  0
 14 18  1  0  0  0
 14 15  2  0  0  0
 15 16  1  0  0  0
 16 17  2  0  0  0
 17 18  1  0  0  0
 13 19  2  0  0  0
  8 20  1  0  0  0
 20 21  2  0  0  0
M  END
>  <Entry>
236

>  <title>
14-7576

>  <rigid docking scores>
-18.0557

>  <InChIKey>
UNPLBYFMCFLUEO-UHFFFAOYSA-N

$$$$
atoms 22 bonds 24
dotmatics
mol io
 22 24  0  0  0  0  0  0  0  0999 V2000
    7.8627   -1.4324    0.0000 N   0  0  0  0  0  0  0  0  0  0  0  0
    7.4492   -0.7162    0.0000 C   0  0  0  0  0  0  0  0  0  0  0  0
    7.8627    0.0000    0.0000 O   0  0  0  0  0  0  0  0  0  0  0  0
    6.6222   -0.7162    0.0000 C   0  0  0  0  0  0  0  0  0  0  0  0
    6.2081   -1.4320    0.0000 C   0  0  0  0  0  0  0  0  0  0  0  0
    5.3799   -1.4320    0.0000 C   0  0  0  0  0  0  0  0  0  0  0  0
    4.9657   -0.7162    0.0000 C   0  0  0  0  0  0  0  0  0  0  0  0
    4.1375   -0.7162    0.0000 C   0  0  0  0  0  0  0  0  0  0  0  0
    3.7234   -1.4320    0.0000 C   0  0  0  0  0  0  0  0  0  0  0  0
    2.8951   -1.4320    0.0000 C   0  0  0  0  0  0  0  0  0  0  0  0
    2.4810   -0.7162    0.0000 C   0  0  0  0  0  0  0  0  0  0  0  0
    1.6540   -0.7162    0.0000 C   0  0  0  0  0  0  0  0  0  0  0  0
    1.2405    0.0000    0.0000 N   0  0  0  0  0  0  0  0  0  0  0  0
    0.4135    0.0000    0.0000 C   0  0  0  0  0  0  0  0  0  0  0  0
    0.0000    0.7162    0.0000 C   0  0  0  0  0  0  0  0  0  0  0  0
    0.4135    1.4324    0.0000 O   0  0  0  0  0  0  0  0  0  0  0  0
    1.2405    1.4324    0.0000 C   0  0  0  0  0  0  0  0  0  0  0  0
    1.6540    0.7162    0.0000 C   0  0  0  0  0  0  0  0  0  0  0  0
    2.8951   -0.0004    0.0000 C   0  0  0  0  0  0  0  0  0  0  0  0
    3.7234   -0.0004    0.0000 C   0  0  0  0  0  0  0  0  0  0  0  0
    5.3799   -0.0004    0.0000 N   0  0  0  0  0  0  0  0  0  0  0  0
    6.2081   -0.0004    0.0000 C   0  0  0  0  0  0  0  0  0  0  0  0
  1  2  1  0  0  0
  2  3  2  0  0  0
  2  4  1  0  0  0
  4 22  1  0  0  0
  4  5  2  0  0  0
  5  6  1  0  0  0
  6  7  2  0  0  0
  7  8  1  0  0  0
  8 20  1  0  0  0
  8  9  2  0  0  0
  9 10  1  0  0  0
 10 11  2  0  0  0
 11 12  1  0  0  0
 12 13  1  0  0  0
 13 18  1  0  0  0
 13 14  1  0  0  0
 14 15  1  0  0  0
 15 16  1  0  0  0
 16 17  1  0  0  0
 17 18  1  0  0  0
 11 19  1  0  0  0
 19 20  2  0  0  0
  7 21  1  0  0  0
 21 22  2  0  0  0
M  END
>  <Entry>
237

>  <title>
14-7642

>  <rigid docking scores>
-17.0776

>  <InChIKey>
JGWBZSQYOXFUKD-UHFFFAOYSA-N

$$$$
atoms 23 bonds 25
dotmatics
mol io
 23 25  0  0  0  0  0  0  0  0999 V2000
    8.6904    1.0702    0.0000 C   0  0  0  0  0  0  0  0  0  0  0  0
    7.8634    1.0709    0.0000 C   0  0  0  0  0  0  0  0  0  0  0  0
    7.4492    0.3550    0.0000 C   0  0  0  0  0  0  0  0  0  0  0  0
    6.6222    0.3558    0.0000 C   0  0  0  0  0  0  0  0  0  0  0  0
    6.2094    1.0723    0.0000 C   0  0  0  0  0  0  0  0  0  0  0  0
    5.3824    1.0730    0.0000 C   0  0  0  0  0  0  0  0  0  0  0  0
    4.9695    1.7896    0.0000 O   0  0  0  0  0  0  0  0  0  0  0  0
    4.9682    0.3572    0.0000 N   0  0  0  0  0  0  0  0  0  0  0  0
    4.1412    0.3579    0.0000 C   0  0  0  0  0  0  0  0  0  0  0  0
    3.7271   -0.3579    0.0000 C   0  0  0  0  0  0  0  0  0  0  0  0
    4.1412   -1.0738    0.0000 C   0  0  0  0  0  0  0  0  0  0  0  0
    3.7271   -1.7896    0.0000 C   0  0  0  0  0  0  0  0  0  0  0  0
    2.8989   -1.7896    0.0000 N   0  0  0  0  0  0  0  0  0  0  0  0
    2.4847   -1.0738    0.0000 C   0  0  0  0  0  0  0  0  0  0  0  0
    1.6565   -1.0738    0.0000 C   0  0  0  0  0  0  0  0  0  0  0  0
    1.2424   -1.7896    0.0000 C   0  0  0  0  0  0  0  0  0  0  0  0
    0.4141   -1.7896    0.0000 C   0  0  0  0  0  0  0  0  0  0  0  0
    0.0000   -1.0738    0.0000 C   0  0  0  0  0  0  0  0  0  0  0  0
    0.4141   -0.3579    0.0000 N   0  0  0  0  0  0  0  0  0  0  0  0
    1.2424   -0.3579    0.0000 C   0  0  0  0  0  0  0  0  0  0  0  0
    2.8989   -0.3579    0.0000 C   0  0  0  0  0  0  0  0  0  0  0  0
    6.6235    1.7882    0.0000 N   0  0  0  0  0  0  0  0  0  0  0  0
    7.4505    1.7874    0.0000 C   0  0  0  0  0  0  0  0  0  0  0  0
  1  2  1  0  0  0
  2 23  1  0  0  0
  2  3  2  0  0  0
  3  4  1  0  0  0
  4  5  2  0  0  0
  5  6  1  0  0  0
  6  7  2  0  0  0
  6  8  1  0  0  0
  8  9  1  0  0  0
  9 10  1  0  0  0
 10 21  1  0  0  0
 10 11  2  0  0  0
 11 12  1  0  0  0
 12 13  2  0  0  0
 13 14  1  0  0  0
 14 15  1  0  0  0
 15 20  1  0  0  0
 15 16  2  0  0  0
 16 17  1  0  0  0
 17 18  2  0  0  0
 18 19  1  0  0  0
 19 20  2  0  0  0
 14 21  2  0  0  0
  5 22  1  0  0  0
 22 23  2  0  0  0
M  END
>  <Entry>
238

>  <title>
14-7693

>  <rigid docking scores>
-15.5617

>  <InChIKey>
DQLUWMADILHIHY-UHFFFAOYSA-N

$$$$
atoms 18 bonds 20
dotmatics
mol io
 18 20  0  0  0  0  0  0  0  0999 V2000
   -1.4960    2.1015    0.0000 O   0  0  0  0  0  0  0  0  0  0  0  0
   -1.9095    1.3853    0.0000 C   0  0  0  0  0  0  0  0  0  0  0  0
   -1.4960    0.6691    0.0000 N   0  0  0  0  0  0  0  0  0  0  0  0
   -0.6690    0.6691    0.0000 C   0  0  0  0  0  0  0  0  0  0  0  0
   -0.1829    1.3381    0.0000 N   0  0  0  0  0  0  0  0  0  0  0  0
    0.6036    1.0826    0.0000 C   0  0  0  0  0  0  0  0  0  0  0  0
    1.2727    1.5687    0.0000 C   0  0  0  0  0  0  0  0  0  0  0  0
    1.1862    2.3911    0.0000 C   0  0  0  0  0  0  0  0  0  0  0  0
    1.8553    2.8772    0.0000 C   0  0  0  0  0  0  0  0  0  0  0  0
    2.6108    2.5409    0.0000 C   0  0  0  0  0  0  0  0  0  0  0  0
    2.6972    1.7184    0.0000 C   0  0  0  0  0  0  0  0  0  0  0  0
    3.4527    1.3820    0.0000 F   0  0  0  0  0  0  0  0  0  0  0  0
    2.0282    1.2323    0.0000 C   0  0  0  0  0  0  0  0  0  0  0  0
    0.6036    0.2556    0.0000 C   0  0  0  0  0  0  0  0  0  0  0  0
   -0.1829    0.0000    0.0000 S   0  0  0  0  0  0  0  0  0  0  0  0
   -2.7365    1.3853    0.0000 C   0  0  0  0  0  0  0  0  0  0  0  0
   -3.4527    0.9718    0.0000 C   0  0  0  0  0  0  0  0  0  0  0  0
   -3.4527    1.7988    0.0000 C   0  0  0  0  0  0  0  0  0  0  0  0
  1  2  2  0  0  0
  2  3  1  0  0  0
  3  4  1  0  0  0
  4 15  1  0  0  0
  4  5  2  0  0  0
  5  6  1  0  0  0
  6  7  1  0  0  0
  7 13  1  0  0  0
  7  8  2  0  0  0
  8  9  1  0  0  0
  9 10  2  0  0  0
 10 11  1  0  0  0
 11 12  1  0  0  0
 11 13  2  0  0  0
  6 14  2  0  0  0
 14 15  1  0  0  0
  2 16  1  0  0  0
 16 18  1  0  0  0
 16 17  1  0  0  0
 17 18  1  0  0  0
M  END
>  <Entry>
239

>  <title>
14-8734

>  <rigid docking scores>
-17.562

>  <InChIKey>
NJRNKKZEEUDQNT-UHFFFAOYSA-N

>  <Pubchem>
32623137

$$$$
atoms 19 bonds 20
dotmatics
mol io
 19 20  0  0  0  0  0  0  0  0999 V2000
    5.7296    1.2405    0.0000 C   0  0  0  0  0  0  0  0  0  0  0  0
    5.7296    0.4135    0.0000 C   0  0  0  0  0  0  0  0  0  0  0  0
    6.4458    0.0000    0.0000 C   0  0  0  0  0  0  0  0  0  0  0  0
    7.1620    0.4135    0.0000 Cl  0  0  0  0  0  0  0  0  0  0  0  0
    6.4458   -0.8270    0.0000 C   0  0  0  0  0  0  0  0  0  0  0  0
    5.7296   -1.2405    0.0000 C   0  0  0  0  0  0  0  0  0  0  0  0
    5.0134   -0.8270    0.0000 C   0  0  0  0  0  0  0  0  0  0  0  0
    5.0134    0.0000    0.0000 C   0  0  0  0  0  0  0  0  0  0  0  0
    4.2972    0.4135    0.0000 N   0  0  0  0  0  0  0  0  0  0  0  0
    3.5810    0.0000    0.0000 C   0  0  0  0  0  0  0  0  0  0  0  0
    3.5810   -0.8270    0.0000 O   0  0  0  0  0  0  0  0  0  0  0  0
    2.8648    0.4135    0.0000 C   0  0  0  0  0  0  0  0  0  0  0  0
    2.1486   -0.0000    0.0000 N   0  0  0  0  0  0  0  0  0  0  0  0
    1.4324    0.4135    0.0000 C   0  0  0  0  0  0  0  0  0  0  0  0
    0.7162    0.0000    0.0000 C   0  0  0  0  0  0  0  0  0  0  0  0
    0.7162   -0.8270    0.0000 N   0  0  0  0  0  0  0  0  0  0  0  0
    0.0000   -1.2405    0.0000 C   0  0  0  0  0  0  0  0  0  0  0  0
    1.4324   -1.2405    0.0000 C   0  0  0  0  0  0  0  0  0  0  0  0
    2.1486   -0.8270    0.0000 C   0  0  0  0  0  0  0  0  0  0  0  0
  1  2  1  0  0  0
  2  8  1  0  0  0
  2  3  2  0  0  0
  3  4  1  0  0  0
  3  5  1  0  0  0
  5  6  2  0  0  0
  6  7  1  0  0  0
  7  8  2  0  0  0
  8  9  1  0  0  0
  9 10  1  0  0  0
 10 11  2  0  0  0
 10 12  1  0  0  0
 12 13  1  0  0  0
 13 19  1  0  0  0
 13 14  1  0  0  0
 14 15  1  0  0  0
 15 16  1  0  0  0
 16 17  1  0  0  0
 16 18  1  0  0  0
 18 19  1  0  0  0
M  END
>  <Entry>
240

>  <title>
14-8780

>  <rigid docking scores>
-15.7664

>  <InChIKey>
GVEWFYVBMAXBAH-UHFFFAOYSA-N

>  <Pubchem>
8896512

>  <Mcule>
MCULE-2086126784

$$$$
atoms 19 bonds 20
dotmatics
mol io
 19 20  0  0  0  0  0  0  0  0999 V2000
    6.0433    0.6363    0.0000 N   0  0  0  0  0  0  0  0  0  0  0  0
    5.2163    0.6363    0.0000 S   0  0  0  0  0  0  0  0  0  0  0  0
    5.2163    1.4633    0.0000 O   0  0  0  0  0  0  0  0  0  0  0  0
    4.3893    0.6363    0.0000 O   0  0  0  0  0  0  0  0  0  0  0  0
    5.2163   -0.1907    0.0000 C   0  0  0  0  0  0  0  0  0  0  0  0
    5.8853   -0.6768    0.0000 C   0  0  0  0  0  0  0  0  0  0  0  0
    5.6298   -1.4633    0.0000 C   0  0  0  0  0  0  0  0  0  0  0  0
    4.8028   -1.4633    0.0000 S   0  0  0  0  0  0  0  0  0  0  0  0
    4.5472   -0.6768    0.0000 C   0  0  0  0  0  0  0  0  0  0  0  0
    3.7607   -0.4212    0.0000 C   0  0  0  0  0  0  0  0  0  0  0  0
    3.5887    0.3877    0.0000 O   0  0  0  0  0  0  0  0  0  0  0  0
    3.1461   -0.9746    0.0000 N   0  0  0  0  0  0  0  0  0  0  0  0
    2.3596   -0.7190    0.0000 C   0  0  0  0  0  0  0  0  0  0  0  0
    2.1876    0.0899    0.0000 C   0  0  0  0  0  0  0  0  0  0  0  0
    1.4011    0.3454    0.0000 C   0  0  0  0  0  0  0  0  0  0  0  0
    0.7865   -0.2079    0.0000 C   0  0  0  0  0  0  0  0  0  0  0  0
    0.0000    0.0476    0.0000 Cl  0  0  0  0  0  0  0  0  0  0  0  0
    0.9585   -1.0169    0.0000 C   0  0  0  0  0  0  0  0  0  0  0  0
    1.7450   -1.2724    0.0000 C   0  0  0  0  0  0  0  0  0  0  0  0
  1  2  1  0  0  0
  2  3  2  0  0  0
  2  4  2  0  0  0
  2  5  1  0  0  0
  5  9  2  0  0  0
  5  6  1  0  0  0
  6  7  2  0  0  0
  7  8  1  0  0  0
  8  9  1  0  0  0
  9 10  1  0  0  0
 10 11  2  0  0  0
 10 12  1  0  0  0
 12 13  1  0  0  0
 13 19  1  0  0  0
 13 14  2  0  0  0
 14 15  1  0  0  0
 15 16  2  0  0  0
 16 17  1  0  0  0
 16 18  1  0  0  0
 18 19  2  0  0  0
M  END
>  <Entry>
241

>  <title>
14-8795

>  <rigid docking scores>
-15.5045

>  <InChIKey>
XVCQUBSZEWFDIP-UHFFFAOYSA-N

$$$$
atoms 22 bonds 24
dotmatics
mol io
 22 24  0  0  0  0  0  0  0  0999 V2000
   -3.8052    4.1737    0.0000 C   0  0  0  0  0  0  0  0  0  0  0  0
   -3.3917    3.4575    0.0000 O   0  0  0  0  0  0  0  0  0  0  0  0
   -2.5647    3.4575    0.0000 C   0  0  0  0  0  0  0  0  0  0  0  0
   -2.1512    4.1737    0.0000 C   0  0  0  0  0  0  0  0  0  0  0  0
   -1.3242    4.1737    0.0000 C   0  0  0  0  0  0  0  0  0  0  0  0
   -0.9107    3.4575    0.0000 C   0  0  0  0  0  0  0  0  0  0  0  0
   -0.0837    3.4575    0.0000 N   0  0  0  0  0  0  0  0  0  0  0  0
    0.3298    2.7413    0.0000 C   0  0  0  0  0  0  0  0  0  0  0  0
   -0.0837    2.0251    0.0000 O   0  0  0  0  0  0  0  0  0  0  0  0
    1.1568    2.7413    0.0000 C   0  0  0  0  0  0  0  0  0  0  0  0
    1.5703    3.4575    0.0000 C   0  0  0  0  0  0  0  0  0  0  0  0
    2.3973    3.4575    0.0000 C   0  0  0  0  0  0  0  0  0  0  0  0
    2.8108    2.7413    0.0000 C   0  0  0  0  0  0  0  0  0  0  0  0
    2.3973    2.0251    0.0000 C   0  0  0  0  0  0  0  0  0  0  0  0
    2.8108    1.3089    0.0000 N   0  0  0  0  0  0  0  0  0  0  0  0
    3.6333    1.2224    0.0000 C   0  0  0  0  0  0  0  0  0  0  0  0
    3.8052    0.4135    0.0000 C   0  0  0  0  0  0  0  0  0  0  0  0
    3.0890   -0.0000    0.0000 N   0  0  0  0  0  0  0  0  0  0  0  0
    2.4744    0.5534    0.0000 C   0  0  0  0  0  0  0  0  0  0  0  0
    1.5703    2.0251    0.0000 C   0  0  0  0  0  0  0  0  0  0  0  0
   -1.3242    2.7413    0.0000 C   0  0  0  0  0  0  0  0  0  0  0  0
   -2.1512    2.7413    0.0000 N   0  0  0  0  0  0  0  0  0  0  0  0
  1  2  1  0  0  0
  2  3  1  0  0  0
  3 22  1  0  0  0
  3  4  2  0  0  0
  4  5  1  0  0  0
  5  6  2  0  0  0
  6  7  1  0  0  0
  7  8  1  0  0  0
  8  9  2  0  0  0
  8 10  1  0  0  0
 10 20  1  0  0  0
 10 11  2  0  0  0
 11 12  1  0  0  0
 12 13  2  0  0  0
 13 14  1  0  0  0
 14 15  1  0  0  0
 15 19  1  0  0  0
 15 16  1  0  0  0
 16 17  2  0  0  0
 17 18  1  0  0  0
 18 19  2  0  0  0
 14 20  2  0  0  0
  6 21  1  0  0  0
 21 22  2  0  0  0
M  END
>  <Entry>
242

>  <title>
14-9354

>  <rigid docking scores>
-16.2404

>  <InChIKey>
RFRQPFMSXDRCSO-UHFFFAOYSA-N

$$$$
atoms 22 bonds 24
dotmatics
mol io
 22 24  0  0  0  0  0  0  0  0999 V2000
   -2.9782    5.2087    0.0000 C   0  0  0  0  0  0  0  0  0  0  0  0
   -2.1512    5.2087    0.0000 C   0  0  0  0  0  0  0  0  0  0  0  0
   -1.7377    4.4925    0.0000 C   0  0  0  0  0  0  0  0  0  0  0  0
   -2.1512    3.7763    0.0000 O   0  0  0  0  0  0  0  0  0  0  0  0
   -0.9107    4.4925    0.0000 N   0  0  0  0  0  0  0  0  0  0  0  0
   -0.4972    5.2087    0.0000 C   0  0  0  0  0  0  0  0  0  0  0  0
    0.3298    5.2087    0.0000 C   0  0  0  0  0  0  0  0  0  0  0  0
    0.7433    4.4925    0.0000 N   0  0  0  0  0  0  0  0  0  0  0  0
    1.5703    4.4925    0.0000 C   0  0  0  0  0  0  0  0  0  0  0  0
    1.9838    3.7763    0.0000 C   0  0  0  0  0  0  0  0  0  0  0  0
    2.8063    3.6898    0.0000 C   0  0  0  0  0  0  0  0  0  0  0  0
    2.9782    2.8809    0.0000 N   0  0  0  0  0  0  0  0  0  0  0  0
    2.2620    2.4674    0.0000 C   0  0  0  0  0  0  0  0  0  0  0  0
    2.1756    1.6449    0.0000 C   0  0  0  0  0  0  0  0  0  0  0  0
    2.8446    1.1588    0.0000 C   0  0  0  0  0  0  0  0  0  0  0  0
    2.7582    0.3364    0.0000 C   0  0  0  0  0  0  0  0  0  0  0  0
    2.0027   -0.0000    0.0000 C   0  0  0  0  0  0  0  0  0  0  0  0
    1.3336    0.4861    0.0000 C   0  0  0  0  0  0  0  0  0  0  0  0
    1.4201    1.3086    0.0000 C   0  0  0  0  0  0  0  0  0  0  0  0
    1.6474    3.0208    0.0000 N   0  0  0  0  0  0  0  0  0  0  0  0
    0.3298    3.7763    0.0000 C   0  0  0  0  0  0  0  0  0  0  0  0
   -0.4972    3.7763    0.0000 C   0  0  0  0  0  0  0  0  0  0  0  0
  1  2  1  0  0  0
  2  3  1  0  0  0
  3  4  2  0  0  0
  3  5  1  0  0  0
  5 22  1  0  0  0
  5  6  1  0  0  0
  6  7  1  0  0  0
  7  8  1  0  0  0
  8  9  1  0  0  0
  9 10  1  0  0  0
 10 20  1  0  0  0
 10 11  2  0  0  0
 11 12  1  0  0  0
 12 13  1  0  0  0
 13 14  1  0  0  0
 14 19  1  0  0  0
 14 15  2  0  0  0
 15 16  1  0  0  0
 16 17  2  0  0  0
 17 18  1  0  0  0
 18 19  2  0  0  0
 13 20  2  0  0  0
  8 21  1  0  0  0
 21 22  1  0  0  0
M  END
>  <Entry>
243

>  <title>
2-4430

>  <rigid docking scores>
-16.4864

>  <InChIKey>
DOMYZEGASQKXAK-UHFFFAOYSA-N

$$$$
atoms 21 bonds 23
dotmatics
mol io
 21 23  0  0  0  0  0  0  0  0999 V2000
   -1.0487    3.4575    0.0000 C   0  0  0  0  0  0  0  0  0  0  0  0
   -0.2217    3.4575    0.0000 C   0  0  0  0  0  0  0  0  0  0  0  0
    0.1918    2.7413    0.0000 O   0  0  0  0  0  0  0  0  0  0  0  0
    1.0188    2.7413    0.0000 C   0  0  0  0  0  0  0  0  0  0  0  0
    1.4323    3.4575    0.0000 C   0  0  0  0  0  0  0  0  0  0  0  0
    2.2593    3.4575    0.0000 C   0  0  0  0  0  0  0  0  0  0  0  0
    2.6728    2.7413    0.0000 C   0  0  0  0  0  0  0  0  0  0  0  0
    2.2593    2.0251    0.0000 C   0  0  0  0  0  0  0  0  0  0  0  0
    1.4323    2.0251    0.0000 C   0  0  0  0  0  0  0  0  0  0  0  0
    1.0188    1.3089    0.0000 C   0  0  0  0  0  0  0  0  0  0  0  0
    1.3552    0.5534    0.0000 N   0  0  0  0  0  0  0  0  0  0  0  0
    0.7406   -0.0000    0.0000 N   0  0  0  0  0  0  0  0  0  0  0  0
    0.0244    0.4135    0.0000 C   0  0  0  0  0  0  0  0  0  0  0  0
   -0.7311    0.0771    0.0000 C   0  0  0  0  0  0  0  0  0  0  0  0
   -1.4002    0.5632    0.0000 N   0  0  0  0  0  0  0  0  0  0  0  0
   -2.1867    0.3077    0.0000 C   0  0  0  0  0  0  0  0  0  0  0  0
   -2.6728    0.9767    0.0000 C   0  0  0  0  0  0  0  0  0  0  0  0
   -2.1867    1.6458    0.0000 C   0  0  0  0  0  0  0  0  0  0  0  0
   -1.4002    1.3902    0.0000 C   0  0  0  0  0  0  0  0  0  0  0  0
   -0.7311    1.8763    0.0000 O   0  0  0  0  0  0  0  0  0  0  0  0
    0.1963    1.2224    0.0000 O   0  0  0  0  0  0  0  0  0  0  0  0
  1  2  1  0  0  0
  2  3  1  0  0  0
  3  4  1  0  0  0
  4  9  1  0  0  0
  4  5  2  0  0  0
  5  6  1  0  0  0
  6  7  2  0  0  0
  7  8  1  0  0  0
  8  9  2  0  0  0
  9 10  1  0  0  0
 10 21  1  0  0  0
 10 11  2  0  0  0
 11 12  1  0  0  0
 12 13  2  0  0  0
 13 14  1  0  0  0
 14 15  1  0  0  0
 15 19  1  0  0  0
 15 16  1  0  0  0
 16 17  1  0  0  0
 17 18  1  0  0  0
 18 19  1  0  0  0
 19 20  2  0  0  0
 13 21  1  0  0  0
M  END
>  <Entry>
244

>  <title>
14-9839

>  <rigid docking scores>
-15.5614

>  <InChIKey>
OZFOJGLWPPZKMP-UHFFFAOYSA-N

$$$$
atoms 19 bonds 21
dotmatics
mol io
 19 21  0  0  0  0  0  0  0  0999 V2000
   -3.4912    3.1068    0.0000 C   0  0  0  0  0  0  0  0  0  0  0  0
   -2.6642    3.1068    0.0000 N   0  0  0  0  0  0  0  0  0  0  0  0
   -2.2507    3.8230    0.0000 C   0  0  0  0  0  0  0  0  0  0  0  0
   -1.4237    3.8230    0.0000 C   0  0  0  0  0  0  0  0  0  0  0  0
   -1.0102    3.1068    0.0000 N   0  0  0  0  0  0  0  0  0  0  0  0
   -0.1832    3.1068    0.0000 C   0  0  0  0  0  0  0  0  0  0  0  0
    0.2303    2.3906    0.0000 C   0  0  0  0  0  0  0  0  0  0  0  0
    1.0528    2.3041    0.0000 N   0  0  0  0  0  0  0  0  0  0  0  0
    1.2247    1.4952    0.0000 C   0  0  0  0  0  0  0  0  0  0  0  0
    1.9802    1.1588    0.0000 C   0  0  0  0  0  0  0  0  0  0  0  0
    2.6493    1.6449    0.0000 C   0  0  0  0  0  0  0  0  0  0  0  0
    3.4048    1.3086    0.0000 C   0  0  0  0  0  0  0  0  0  0  0  0
    3.4912    0.4861    0.0000 C   0  0  0  0  0  0  0  0  0  0  0  0
    2.8222   -0.0000    0.0000 N   0  0  0  0  0  0  0  0  0  0  0  0
    2.0667    0.3364    0.0000 C   0  0  0  0  0  0  0  0  0  0  0  0
    0.5085    1.0817    0.0000 N   0  0  0  0  0  0  0  0  0  0  0  0
   -0.1061    1.6351    0.0000 O   0  0  0  0  0  0  0  0  0  0  0  0
   -1.4237    2.3906    0.0000 C   0  0  0  0  0  0  0  0  0  0  0  0
   -2.2507    2.3906    0.0000 C   0  0  0  0  0  0  0  0  0  0  0  0
  1  2  1  0  0  0
  2 19  1  0  0  0
  2  3  1  0  0  0
  3  4  1  0  0  0
  4  5  1  0  0  0
  5  6  1  0  0  0
  6  7  1  0  0  0
  7 17  1  0  0  0
  7  8  2  0  0  0
  8  9  1  0  0  0
  9 10  1  0  0  0
 10 15  1  0  0  0
 10 11  2  0  0  0
 11 12  1  0  0  0
 12 13  2  0  0  0
 13 14  1  0  0  0
 14 15  2  0  0  0
  9 16  2  0  0  0
 16 17  1  0  0  0
  5 18  1  0  0  0
 18 19  1  0  0  0
M  END
>  <Entry>
245

>  <title>
15-161

>  <rigid docking scores>
-16.2303

>  <InChIKey>
DMVUDIMQLXZRGH-UHFFFAOYSA-N

>  <Mcule>
MCULE-5771901489

$$$$
atoms 20 bonds 22
dotmatics
mol io
 20 22  0  0  0  0  0  0  0  0999 V2000
   -3.1012    2.7413    0.0000 C   0  0  0  0  0  0  0  0  0  0  0  0
   -2.2743    2.7413    0.0000 C   0  0  0  0  0  0  0  0  0  0  0  0
   -1.8607    3.4575    0.0000 N   0  0  0  0  0  0  0  0  0  0  0  0
   -1.0338    3.4575    0.0000 C   0  0  0  0  0  0  0  0  0  0  0  0
   -0.6202    2.7413    0.0000 C   0  0  0  0  0  0  0  0  0  0  0  0
    0.2068    2.7413    0.0000 C   0  0  0  0  0  0  0  0  0  0  0  0
    0.6202    2.0251    0.0000 O   0  0  0  0  0  0  0  0  0  0  0  0
    1.4473    2.0251    0.0000 C   0  0  0  0  0  0  0  0  0  0  0  0
    1.8607    2.7413    0.0000 C   0  0  0  0  0  0  0  0  0  0  0  0
    2.6878    2.7413    0.0000 C   0  0  0  0  0  0  0  0  0  0  0  0
    3.1012    2.0251    0.0000 C   0  0  0  0  0  0  0  0  0  0  0  0
    2.6878    1.3089    0.0000 C   0  0  0  0  0  0  0  0  0  0  0  0
    1.8607    1.3089    0.0000 C   0  0  0  0  0  0  0  0  0  0  0  0
   -1.0338    2.0251    0.0000 C   0  0  0  0  0  0  0  0  0  0  0  0
   -0.6202    1.3089    0.0000 N   0  0  0  0  0  0  0  0  0  0  0  0
    0.2022    1.2224    0.0000 C   0  0  0  0  0  0  0  0  0  0  0  0
    0.3742    0.4135    0.0000 C   0  0  0  0  0  0  0  0  0  0  0  0
   -0.3420    0.0000    0.0000 C   0  0  0  0  0  0  0  0  0  0  0  0
   -0.9566    0.5534    0.0000 C   0  0  0  0  0  0  0  0  0  0  0  0
   -1.8607    2.0251    0.0000 N   0  0  0  0  0  0  0  0  0  0  0  0
  1  2  1  0  0  0
  2 20  1  0  0  0
  2  3  2  0  0  0
  3  4  1  0  0  0
  4  5  2  0  0  0
  5  6  1  0  0  0
  6  7  1  0  0  0
  7  8  1  0  0  0
  8 13  1  0  0  0
  8  9  2  0  0  0
  9 10  1  0  0  0
 10 11  2  0  0  0
 11 12  1  0  0  0
 12 13  2  0  0  0
  5 14  1  0  0  0
 14 15  1  0  0  0
 15 19  1  0  0  0
 15 16  1  0  0  0
 16 17  1  0  0  0
 17 18  1  0  0  0
 18 19  1  0  0  0
 14 20  2  0  0  0
M  END
>  <Entry>
246

>  <title>
2-4598

>  <rigid docking scores>
-15.632

>  <InChIKey>
LLWNHOJVAXPJGK-UHFFFAOYSA-N

$$$$
atoms 23 bonds 26
dotmatics
mol io
 23 26  0  0  0  0  0  0  0  0999 V2000
    4.2965    2.2758    0.0000 C   0  0  0  0  0  0  0  0  0  0  0  0
    3.5803    1.8623    0.0000 C   0  0  0  0  0  0  0  0  0  0  0  0
    3.5803    1.0353    0.0000 C   0  0  0  0  0  0  0  0  0  0  0  0
    2.8641    0.6218    0.0000 N   0  0  0  0  0  0  0  0  0  0  0  0
    2.8641   -0.2052    0.0000 C   0  0  0  0  0  0  0  0  0  0  0  0
    2.1482   -0.6193    0.0000 N   0  0  0  0  0  0  0  0  0  0  0  0
    2.1482   -1.4476    0.0000 C   0  0  0  0  0  0  0  0  0  0  0  0
    1.4324   -1.8617    0.0000 C   0  0  0  0  0  0  0  0  0  0  0  0
    1.4331   -2.6887    0.0000 C   0  0  0  0  0  0  0  0  0  0  0  0
    0.7173   -3.1028    0.0000 C   0  0  0  0  0  0  0  0  0  0  0  0
    0.0007   -2.6899    0.0000 N   0  0  0  0  0  0  0  0  0  0  0  0
    0.0000   -1.8629    0.0000 C   0  0  0  0  0  0  0  0  0  0  0  0
    0.7158   -1.4488    0.0000 C   0  0  0  0  0  0  0  0  0  0  0  0
    2.8641   -1.8617    0.0000 N   0  0  0  0  0  0  0  0  0  0  0  0
    3.5799   -1.4476    0.0000 C   0  0  0  0  0  0  0  0  0  0  0  0
    3.5799   -0.6193    0.0000 C   0  0  0  0  0  0  0  0  0  0  0  0
    4.3668   -0.3649    0.0000 C   0  0  0  0  0  0  0  0  0  0  0  0
    4.8519   -1.0334    0.0000 C   0  0  0  0  0  0  0  0  0  0  0  0
    4.3668   -1.7020    0.0000 C   0  0  0  0  0  0  0  0  0  0  0  0
    2.1479    1.0353    0.0000 C   0  0  0  0  0  0  0  0  0  0  0  0
    2.1479    1.8623    0.0000 C   0  0  0  0  0  0  0  0  0  0  0  0
    2.8641    2.2758    0.0000 N   0  0  0  0  0  0  0  0  0  0  0  0
    2.8641    3.1028    0.0000 C   0  0  0  0  0  0  0  0  0  0  0  0
  1  2  1  0  0  0
  2 22  1  0  0  0
  2  3  1  0  0  0
  3  4  1  0  0  0
  4  5  1  0  0  0
  5 16  1  0  0  0
  5  6  2  0  0  0
  6  7  1  0  0  0
  7  8  1  0  0  0
  8 13  1  0  0  0
  8  9  2  0  0  0
  9 10  1  0  0  0
 10 11  2  0  0  0
 11 12  1  0  0  0
 12 13  2  0  0  0
  7 14  2  0  0  0
 14 15  1  0  0  0
 15 19  1  0  0  0
 15 16  2  0  0  0
 16 17  1  0  0  0
 17 18  1  0  0  0
 18 19  1  0  0  0
  4 20  1  0  0  0
 20 21  1  0  0  0
 21 22  1  0  0  0
 22 23  1  0  0  0
M  END
>  <Entry>
247

>  <title>
15-423

>  <rigid docking scores>
-18.8914

>  <InChIKey>
UDCLKIMUYORTNB-UHFFFAOYSA-N

$$$$
atoms 21 bonds 23
dotmatics
mol io
 21 23  0  0  0  0  0  0  0  0999 V2000
    0.6691    3.0054    0.0000 C   0  0  0  0  0  0  0  0  0  0  0  0
    0.6691    2.1784    0.0000 N   0  0  0  0  0  0  0  0  0  0  0  0
    1.3381    1.6923    0.0000 C   0  0  0  0  0  0  0  0  0  0  0  0
    1.0826    0.9057    0.0000 C   0  0  0  0  0  0  0  0  0  0  0  0
    1.5687    0.2367    0.0000 C   0  0  0  0  0  0  0  0  0  0  0  0
    1.2323   -0.5188    0.0000 N   0  0  0  0  0  0  0  0  0  0  0  0
    0.4234   -0.6908    0.0000 C   0  0  0  0  0  0  0  0  0  0  0  0
    0.3369   -1.5132    0.0000 C   0  0  0  0  0  0  0  0  0  0  0  0
    1.0924   -1.8496    0.0000 C   0  0  0  0  0  0  0  0  0  0  0  0
    1.6458   -1.2350    0.0000 C   0  0  0  0  0  0  0  0  0  0  0  0
    2.4683   -1.3215    0.0000 C   0  0  0  0  0  0  0  0  0  0  0  0
    2.8046   -2.0770    0.0000 O   0  0  0  0  0  0  0  0  0  0  0  0
    3.6271   -2.1634    0.0000 C   0  0  0  0  0  0  0  0  0  0  0  0
    4.1132   -1.4944    0.0000 C   0  0  0  0  0  0  0  0  0  0  0  0
    4.9357   -1.5808    0.0000 C   0  0  0  0  0  0  0  0  0  0  0  0
    5.2720   -2.3363    0.0000 C   0  0  0  0  0  0  0  0  0  0  0  0
    6.0945   -2.4228    0.0000 Cl  0  0  0  0  0  0  0  0  0  0  0  0
    4.7859   -3.0054    0.0000 C   0  0  0  0  0  0  0  0  0  0  0  0
    3.9635   -2.9189    0.0000 N   0  0  0  0  0  0  0  0  0  0  0  0
    0.2556    0.9057    0.0000 C   0  0  0  0  0  0  0  0  0  0  0  0
    0.0000    1.6923    0.0000 N   0  0  0  0  0  0  0  0  0  0  0  0
  1  2  1  0  0  0
  2 21  1  0  0  0
  2  3  1  0  0  0
  3  4  2  0  0  0
  4  5  1  0  0  0
  5  6  1  0  0  0
  6 10  1  0  0  0
  6  7  1  0  0  0
  7  8  1  0  0  0
  8  9  1  0  0  0
  9 10  1  0  0  0
 10 11  1  0  0  0
 11 12  1  0  0  0
 12 13  1  0  0  0
 13 19  1  0  0  0
 13 14  2  0  0  0
 14 15  1  0  0  0
 15 16  2  0  0  0
 16 17  1  0  0  0
 16 18  1  0  0  0
 18 19  2  0  0  0
  4 20  1  0  0  0
 20 21  2  0  0  0
M  END
>  <Entry>
248

>  <title>
15-444

>  <rigid docking scores>
-17.2814

>  <InChIKey>
UOEUHVXGOIEOHW-UHFFFAOYSA-N

$$$$
atoms 20 bonds 22
dotmatics
mol io
 20 22  0  0  0  0  0  0  0  0999 V2000
    6.6222    0.7153    0.0000 O   0  0  0  0  0  0  0  0  0  0  0  0
    6.2081   -0.0005    0.0000 C   0  0  0  0  0  0  0  0  0  0  0  0
    6.6222   -0.7164    0.0000 C   0  0  0  0  0  0  0  0  0  0  0  0
    6.2081   -1.4322    0.0000 C   0  0  0  0  0  0  0  0  0  0  0  0
    5.3799   -1.4322    0.0000 C   0  0  0  0  0  0  0  0  0  0  0  0
    4.9657   -0.7164    0.0000 C   0  0  0  0  0  0  0  0  0  0  0  0
    4.1375   -0.7164    0.0000 N   0  0  0  0  0  0  0  0  0  0  0  0
    3.7234   -1.4322    0.0000 C   0  0  0  0  0  0  0  0  0  0  0  0
    2.8951   -1.4322    0.0000 C   0  0  0  0  0  0  0  0  0  0  0  0
    2.4810   -0.7164    0.0000 N   0  0  0  0  0  0  0  0  0  0  0  0
    1.6540   -0.7164    0.0000 C   0  0  0  0  0  0  0  0  0  0  0  0
    1.2405   -0.0002    0.0000 C   0  0  0  0  0  0  0  0  0  0  0  0
    0.4135   -0.0002    0.0000 C   0  0  0  0  0  0  0  0  0  0  0  0
    0.0000    0.7160    0.0000 C   0  0  0  0  0  0  0  0  0  0  0  0
    0.4135    1.4322    0.0000 N   0  0  0  0  0  0  0  0  0  0  0  0
    1.2405    1.4322    0.0000 C   0  0  0  0  0  0  0  0  0  0  0  0
    1.6540    0.7160    0.0000 C   0  0  0  0  0  0  0  0  0  0  0  0
    2.8951   -0.0005    0.0000 C   0  0  0  0  0  0  0  0  0  0  0  0
    3.7234   -0.0005    0.0000 C   0  0  0  0  0  0  0  0  0  0  0  0
    5.3799   -0.0005    0.0000 C   0  0  0  0  0  0  0  0  0  0  0  0
  1  2  1  0  0  0
  2 20  1  0  0  0
  2  3  2  0  0  0
  3  4  1  0  0  0
  4  5  2  0  0  0
  5  6  1  0  0  0
  6  7  1  0  0  0
  7 19  1  0  0  0
  7  8  1  0  0  0
  8  9  1  0  0  0
  9 10  1  0  0  0
 10 11  1  0  0  0
 11 12  1  0  0  0
 12 17  1  0  0  0
 12 13  2  0  0  0
 13 14  1  0  0  0
 14 15  2  0  0  0
 15 16  1  0  0  0
 16 17  2  0  0  0
 10 18  1  0  0  0
 18 19  1  0  0  0
  6 20  2  0  0  0
M  END
>  <Entry>
249

>  <title>
15-949

>  <rigid docking scores>
-16.2434

>  <InChIKey>
PQPLIOPHZCREKZ-UHFFFAOYSA-N

>  <Mcule>
MCULE-2407641753

$$$$
atoms 19 bonds 21
dotmatics
mol io
 19 21  0  0  0  0  0  0  0  0999 V2000
    1.4461    0.2157    0.0000 O   0  0  0  0  0  0  0  0  0  0  0  0
    2.1594   -0.2029    0.0000 C   0  0  0  0  0  0  0  0  0  0  0  0
    2.8785    0.2055    0.0000 C   0  0  0  0  0  0  0  0  0  0  0  0
    2.8844    1.0324    0.0000 C   0  0  0  0  0  0  0  0  0  0  0  0
    2.1712    1.4510    0.0000 C   0  0  0  0  0  0  0  0  0  0  0  0
    2.1771    2.2780    0.0000 C   0  0  0  0  0  0  0  0  0  0  0  0
    2.8962    2.6864    0.0000 C   0  0  0  0  0  0  0  0  0  0  0  0
    3.6094    2.2678    0.0000 C   0  0  0  0  0  0  0  0  0  0  0  0
    3.6035    1.4408    0.0000 N   0  0  0  0  0  0  0  0  0  0  0  0
    2.1534   -1.0299    0.0000 N   0  0  0  0  0  0  0  0  0  0  0  0
    2.8693   -1.4440    0.0000 C   0  0  0  0  0  0  0  0  0  0  0  0
    2.8693   -2.2723    0.0000 C   0  0  0  0  0  0  0  0  0  0  0  0
    2.1534   -2.6864    0.0000 C   0  0  0  0  0  0  0  0  0  0  0  0
    1.4317   -2.2723    0.0000 C   0  0  0  0  0  0  0  0  0  0  0  0
    0.7158   -2.6864    0.0000 C   0  0  0  0  0  0  0  0  0  0  0  0
    0.0000   -2.2723    0.0000 C   0  0  0  0  0  0  0  0  0  0  0  0
    0.0000   -1.4440    0.0000 C   0  0  0  0  0  0  0  0  0  0  0  0
    0.7158   -1.0299    0.0000 C   0  0  0  0  0  0  0  0  0  0  0  0
    1.4317   -1.4440    0.0000 C   0  0  0  0  0  0  0  0  0  0  0  0
  1  2  2  0  0  0
  2  3  1  0  0  0
  3  4  1  0  0  0
  4  9  1  0  0  0
  4  5  2  0  0  0
  5  6  1  0  0  0
  6  7  2  0  0  0
  7  8  1  0  0  0
  8  9  2  0  0  0
  2 10  1  0  0  0
 10 19  1  0  0  0
 10 11  1  0  0  0
 11 12  1  0  0  0
 12 13  1  0  0  0
 13 14  1  0  0  0
 14 19  1  0  0  0
 14 15  2  0  0  0
 15 16  1  0  0  0
 16 17  2  0  0  0
 17 18  1  0  0  0
 18 19  2  0  0  0
M  END
>  <Entry>
250

>  <title>
15-1082

>  <rigid docking scores>
-15.6933

>  <InChIKey>
SSIZVHFXRKWXRV-UHFFFAOYSA-N

>  <SureChEMBL Patents>
SCHEMBL10574888

>  <Pubchem>
15055622

$$$$
atoms 20 bonds 22
dotmatics
mol io
 20 22  0  0  0  0  0  0  0  0999 V2000
    3.1868   -0.4378    0.0000 C   0  0  0  0  0  0  0  0  0  0  0  0
    2.9344    0.3498    0.0000 C   0  0  0  0  0  0  0  0  0  0  0  0
    3.4254    1.0183    0.0000 C   0  0  0  0  0  0  0  0  0  0  0  0
    4.2524    1.0183    0.0000 C   0  0  0  0  0  0  0  0  0  0  0  0
    4.6659    1.7345    0.0000 O   0  0  0  0  0  0  0  0  0  0  0  0
    4.6659    0.3021    0.0000 N   0  0  0  0  0  0  0  0  0  0  0  0
    5.4929    0.3021    0.0000 C   0  0  0  0  0  0  0  0  0  0  0  0
    5.9064   -0.4141    0.0000 C   0  0  0  0  0  0  0  0  0  0  0  0
    5.4929   -1.1303    0.0000 N   0  0  0  0  0  0  0  0  0  0  0  0
    5.9064   -1.8465    0.0000 C   0  0  0  0  0  0  0  0  0  0  0  0
    4.6659   -1.1303    0.0000 C   0  0  0  0  0  0  0  0  0  0  0  0
    4.2524   -0.4141    0.0000 C   0  0  0  0  0  0  0  0  0  0  0  0
    2.9344    1.6868    0.0000 O   0  0  0  0  0  0  0  0  0  0  0  0
    2.1475    1.4324    0.0000 C   0  0  0  0  0  0  0  0  0  0  0  0
    1.4317    1.8465    0.0000 C   0  0  0  0  0  0  0  0  0  0  0  0
    0.7158    1.4324    0.0000 C   0  0  0  0  0  0  0  0  0  0  0  0
    0.7158    0.6042    0.0000 C   0  0  0  0  0  0  0  0  0  0  0  0
    0.0000    0.1900    0.0000 Cl  0  0  0  0  0  0  0  0  0  0  0  0
    1.4317    0.1900    0.0000 C   0  0  0  0  0  0  0  0  0  0  0  0
    2.1475    0.6042    0.0000 C   0  0  0  0  0  0  0  0  0  0  0  0
  1  2  1  0  0  0
  2 20  1  0  0  0
  2  3  2  0  0  0
  3  4  1  0  0  0
  4  5  2  0  0  0
  4  6  1  0  0  0
  6 12  1  0  0  0
  6  7  1  0  0  0
  7  8  1  0  0  0
  8  9  1  0  0  0
  9 10  1  0  0  0
  9 11  1  0  0  0
 11 12  1  0  0  0
  3 13  1  0  0  0
 13 14  1  0  0  0
 14 20  1  0  0  0
 14 15  2  0  0  0
 15 16  1  0  0  0
 16 17  2  0  0  0
 17 18  1  0  0  0
 17 19  1  0  0  0
 19 20  2  0  0  0
M  END
>  <Entry>
251

>  <title>
15-1210

>  <rigid docking scores>
-16.3682

>  <InChIKey>
JJHFERMEGVVNTF-UHFFFAOYSA-N

>  <ZINC>
ZINC000004486560

>  <eMolecules>
2035128

>  <Pubchem>
974610

>  <Mcule>
MCULE-2453314057

>  <MolPort>
MolPort-000-482-833

$$$$
atoms 20 bonds 22
dotmatics
mol io
 20 22  0  0  0  0  0  0  0  0999 V2000
    7.4492    0.7133    0.0000 C   0  0  0  0  0  0  0  0  0  0  0  0
    6.6222    0.7140    0.0000 N   0  0  0  0  0  0  0  0  0  0  0  0
    6.2081   -0.0018    0.0000 C   0  0  0  0  0  0  0  0  0  0  0  0
    5.3811   -0.0011    0.0000 C   0  0  0  0  0  0  0  0  0  0  0  0
    4.9682    0.7155    0.0000 N   0  0  0  0  0  0  0  0  0  0  0  0
    4.1412    0.7162    0.0000 C   0  0  0  0  0  0  0  0  0  0  0  0
    3.7271    0.0004    0.0000 C   0  0  0  0  0  0  0  0  0  0  0  0
    4.1412   -0.7155    0.0000 C   0  0  0  0  0  0  0  0  0  0  0  0
    3.7271   -1.4313    0.0000 C   0  0  0  0  0  0  0  0  0  0  0  0
    2.8989   -1.4313    0.0000 N   0  0  0  0  0  0  0  0  0  0  0  0
    2.4847   -0.7155    0.0000 C   0  0  0  0  0  0  0  0  0  0  0  0
    1.6565   -0.7155    0.0000 C   0  0  0  0  0  0  0  0  0  0  0  0
    1.2424   -1.4313    0.0000 C   0  0  0  0  0  0  0  0  0  0  0  0
    0.4141   -1.4313    0.0000 C   0  0  0  0  0  0  0  0  0  0  0  0
    0.0000   -0.7155    0.0000 C   0  0  0  0  0  0  0  0  0  0  0  0
    0.4141    0.0004    0.0000 N   0  0  0  0  0  0  0  0  0  0  0  0
    1.2424    0.0004    0.0000 C   0  0  0  0  0  0  0  0  0  0  0  0
    2.8989    0.0004    0.0000 N   0  0  0  0  0  0  0  0  0  0  0  0
    5.3824    1.4313    0.0000 C   0  0  0  0  0  0  0  0  0  0  0  0
    6.2094    1.4306    0.0000 C   0  0  0  0  0  0  0  0  0  0  0  0
  1  2  1  0  0  0
  2 20  1  0  0  0
  2  3  1  0  0  0
  3  4  1  0  0  0
  4  5  1  0  0  0
  5  6  1  0  0  0
  6  7  1  0  0  0
  7 18  1  0  0  0
  7  8  2  0  0  0
  8  9  1  0  0  0
  9 10  2  0  0  0
 10 11  1  0  0  0
 11 12  1  0  0  0
 12 17  1  0  0  0
 12 13  2  0  0  0
 13 14  1  0  0  0
 14 15  2  0  0  0
 15 16  1  0  0  0
 16 17  2  0  0  0
 11 18  2  0  0  0
  5 19  1  0  0  0
 19 20  1  0  0  0
M  END
>  <Entry>
252

>  <title>
15-1214

>  <rigid docking scores>
-19.4633

>  <InChIKey>
ANNCKMWOXPCBPF-UHFFFAOYSA-N

$$$$
atoms 21 bonds 22
dotmatics
mol io
 21 22  0  0  0  0  0  0  0  0999 V2000
   -3.3080    4.2972    0.0000 C   0  0  0  0  0  0  0  0  0  0  0  0
   -2.8945    3.5810    0.0000 O   0  0  0  0  0  0  0  0  0  0  0  0
   -2.0675    3.5810    0.0000 C   0  0  0  0  0  0  0  0  0  0  0  0
   -1.6540    4.2972    0.0000 C   0  0  0  0  0  0  0  0  0  0  0  0
   -0.8270    4.2972    0.0000 C   0  0  0  0  0  0  0  0  0  0  0  0
   -0.4135    3.5810    0.0000 C   0  0  0  0  0  0  0  0  0  0  0  0
    0.4135    3.5810    0.0000 C   0  0  0  0  0  0  0  0  0  0  0  0
    0.8270    4.2972    0.0000 O   0  0  0  0  0  0  0  0  0  0  0  0
    0.8270    2.8648    0.0000 N   0  0  0  0  0  0  0  0  0  0  0  0
    1.6540    2.8648    0.0000 C   0  0  0  0  0  0  0  0  0  0  0  0
    2.0675    2.1486    0.0000 C   0  0  0  0  0  0  0  0  0  0  0  0
    2.8945    2.1486    0.0000 C   0  0  0  0  0  0  0  0  0  0  0  0
    3.3080    1.4324    0.0000 C   0  0  0  0  0  0  0  0  0  0  0  0
    2.8945    0.7162    0.0000 N   0  0  0  0  0  0  0  0  0  0  0  0
    2.0675    0.7162    0.0000 C   0  0  0  0  0  0  0  0  0  0  0  0
    1.6540   -0.0000    0.0000 O   0  0  0  0  0  0  0  0  0  0  0  0
    1.6540    1.4324    0.0000 N   0  0  0  0  0  0  0  0  0  0  0  0
   -0.8270    2.8648    0.0000 C   0  0  0  0  0  0  0  0  0  0  0  0
   -1.6540    2.8648    0.0000 C   0  0  0  0  0  0  0  0  0  0  0  0
   -2.0675    2.1486    0.0000 O   0  0  0  0  0  0  0  0  0  0  0  0
   -2.8945    2.1486    0.0000 C   0  0  0  0  0  0  0  0  0  0  0  0
  1  2  1  0  0  0
  2  3  1  0  0  0
  3 19  1  0  0  0
  3  4  2  0  0  0
  4  5  1  0  0  0
  5  6  2  0  0  0
  6  7  1  0  0  0
  7  8  2  0  0  0
  7  9  1  0  0  0
  9 10  1  0  0  0
 10 11  1  0  0  0
 11 17  1  0  0  0
 11 12  2  0  0  0
 12 13  1  0  0  0
 13 14  2  0  0  0
 14 15  1  0  0  0
 15 16  2  0  0  0
 15 17  1  0  0  0
  6 18  1  0  0  0
 18 19  2  0  0  0
 19 20  1  0  0  0
 20 21  1  0  0  0
M  END
>  <Entry>
253

>  <title>
15-1499

>  <rigid docking scores>
-16.2366

>  <InChIKey>
VOMKBGAZEWILMP-UHFFFAOYSA-N

$$$$
atoms 25 bonds 28
dotmatics
mol io
 25 28  0  0  0  0  0  0  0  0999 V2000
    3.2752    2.9415    0.0000 O   0  0  0  0  0  0  0  0  0  0  0  0
    3.0183    2.1554    0.0000 C   0  0  0  0  0  0  0  0  0  0  0  0
    3.5034    1.4869    0.0000 C   0  0  0  0  0  0  0  0  0  0  0  0
    3.0183    0.8184    0.0000 C   0  0  0  0  0  0  0  0  0  0  0  0
    3.2752    0.0323    0.0000 C   0  0  0  0  0  0  0  0  0  0  0  0
    4.0845   -0.1382    0.0000 O   0  0  0  0  0  0  0  0  0  0  0  0
    2.7230   -0.5833    0.0000 N   0  0  0  0  0  0  0  0  0  0  0  0
    2.9800   -1.3693    0.0000 C   0  0  0  0  0  0  0  0  0  0  0  0
    3.7892   -1.5398    0.0000 C   0  0  0  0  0  0  0  0  0  0  0  0
    4.0462   -2.3259    0.0000 C   0  0  0  0  0  0  0  0  0  0  0  0
    3.4939   -2.9415    0.0000 C   0  0  0  0  0  0  0  0  0  0  0  0
    2.6847   -2.7710    0.0000 C   0  0  0  0  0  0  0  0  0  0  0  0
    2.4277   -1.9849    0.0000 C   0  0  0  0  0  0  0  0  0  0  0  0
    1.6185   -1.8144    0.0000 N   0  0  0  0  0  0  0  0  0  0  0  0
    1.0662   -2.4300    0.0000 C   0  0  0  0  0  0  0  0  0  0  0  0
    0.2570   -2.2595    0.0000 C   0  0  0  0  0  0  0  0  0  0  0  0
    0.0000   -1.4735    0.0000 O   0  0  0  0  0  0  0  0  0  0  0  0
    0.5523   -0.8579    0.0000 C   0  0  0  0  0  0  0  0  0  0  0  0
    1.3615   -1.0284    0.0000 C   0  0  0  0  0  0  0  0  0  0  0  0
    2.2314    1.0728    0.0000 C   0  0  0  0  0  0  0  0  0  0  0  0
    1.5156    0.6586    0.0000 C   0  0  0  0  0  0  0  0  0  0  0  0
    0.7997    1.0728    0.0000 C   0  0  0  0  0  0  0  0  0  0  0  0
    0.7997    1.9010    0.0000 C   0  0  0  0  0  0  0  0  0  0  0  0
    1.5156    2.3151    0.0000 C   0  0  0  0  0  0  0  0  0  0  0  0
    2.2314    1.9010    0.0000 C   0  0  0  0  0  0  0  0  0  0  0  0
  1  2  2  0  0  0
  2 25  1  0  0  0
  2  3  1  0  0  0
  3  4  1  0  0  0
  4  5  1  0  0  0
  5  6  2  0  0  0
  5  7  1  0  0  0
  7  8  1  0  0  0
  8 13  1  0  0  0
  8  9  2  0  0  0
  9 10  1  0  0  0
 10 11  2  0  0  0
 11 12  1  0  0  0
 12 13  2  0  0  0
 13 14  1  0  0  0
 14 19  1  0  0  0
 14 15  1  0  0  0
 15 16  1  0  0  0
 16 17  1  0  0  0
 17 18  1  0  0  0
 18 19  1  0  0  0
  4 20  1  0  0  0
 20 25  1  0  0  0
 20 21  2  0  0  0
 21 22  1  0  0  0
 22 23  2  0  0  0
 23 24  1  0  0  0
 24 25  2  0  0  0
M  END
>  <Entry>
254

>  <title>
15-1640

>  <rigid docking scores>
-15.734

>  <InChIKey>
FCQXEQSRAPFYJC-UHFFFAOYSA-N

$$$$
atoms 22 bonds 23
dotmatics
mol io
 22 23  0  0  0  0  0  0  0  0999 V2000
   -3.7215    4.2972    0.0000 C   0  0  0  0  0  0  0  0  0  0  0  0
   -3.3080    3.5810    0.0000 O   0  0  0  0  0  0  0  0  0  0  0  0
   -2.4810    3.5810    0.0000 C   0  0  0  0  0  0  0  0  0  0  0  0
   -2.0675    4.2972    0.0000 C   0  0  0  0  0  0  0  0  0  0  0  0
   -1.2405    4.2972    0.0000 C   0  0  0  0  0  0  0  0  0  0  0  0
   -0.8270    3.5810    0.0000 C   0  0  0  0  0  0  0  0  0  0  0  0
    0.0000    3.5810    0.0000 C   0  0  0  0  0  0  0  0  0  0  0  0
    0.4135    2.8648    0.0000 C   0  0  0  0  0  0  0  0  0  0  0  0
    0.0000    2.1486    0.0000 O   0  0  0  0  0  0  0  0  0  0  0  0
    1.2405    2.8648    0.0000 N   0  0  0  0  0  0  0  0  0  0  0  0
    1.6540    2.1486    0.0000 C   0  0  0  0  0  0  0  0  0  0  0  0
    1.2405    1.4324    0.0000 C   0  0  0  0  0  0  0  0  0  0  0  0
    1.6540    0.7162    0.0000 C   0  0  0  0  0  0  0  0  0  0  0  0
    2.4810    0.7162    0.0000 C   0  0  0  0  0  0  0  0  0  0  0  0
    2.8945    0.0000    0.0000 O   0  0  0  0  0  0  0  0  0  0  0  0
    3.7215   -0.0000    0.0000 C   0  0  0  0  0  0  0  0  0  0  0  0
    2.8945    1.4324    0.0000 C   0  0  0  0  0  0  0  0  0  0  0  0
    2.4810    2.1486    0.0000 C   0  0  0  0  0  0  0  0  0  0  0  0
    2.8945    2.8648    0.0000 O   0  0  0  0  0  0  0  0  0  0  0  0
    2.4810    3.5810    0.0000 C   0  0  0  0  0  0  0  0  0  0  0  0
   -1.2405    2.8648    0.0000 C   0  0  0  0  0  0  0  0  0  0  0  0
   -2.0675    2.8648    0.0000 C   0  0  0  0  0  0  0  0  0  0  0  0
  1  2  1  0  0  0
  2  3  1  0  0  0
  3 22  1  0  0  0
  3  4  2  0  0  0
  4  5  1  0  0  0
  5  6  2  0  0  0
  6  7  1  0  0  0
  7  8  1  0  0  0
  8  9  2  0  0  0
  8 10  1  0  0  0
 10 11  1  0  0  0
 11 18  1  0  0  0
 11 12  2  0  0  0
 12 13  1  0  0  0
 13 14  2  0  0  0
 14 15  1  0  0  0
 15 16  1  0  0  0
 14 17  1  0  0  0
 17 18  2  0  0  0
 18 19  1  0  0  0
 19 20  1  0  0  0
  6 21  1  0  0  0
 21 22  2  0  0  0
M  END
>  <Entry>
255

>  <title>
15-1642

>  <rigid docking scores>
-16.7449

>  <InChIKey>
NDODXCZNAAQOIJ-UHFFFAOYSA-N

>  <ZINC>
ZINC000002051906

>  <eMolecules>
5359045

>  <Pubchem>
1717973

>  <Mcule>
MCULE-3826759337

>  <MolPort>
MolPort-000-536-774

$$$$
atoms 21 bonds 23
dotmatics
mol io
 21 23  0  0  0  0  0  0  0  0999 V2000
    3.5810    2.4810    0.0000 O   0  0  0  0  0  0  0  0  0  0  0  0
    3.5810    1.6540    0.0000 C   0  0  0  0  0  0  0  0  0  0  0  0
    4.2972    1.2405    0.0000 C   0  0  0  0  0  0  0  0  0  0  0  0
    4.2972    0.4135    0.0000 C   0  0  0  0  0  0  0  0  0  0  0  0
    3.5810    0.0000    0.0000 N   0  0  0  0  0  0  0  0  0  0  0  0
    3.5810   -0.8270    0.0000 C   0  0  0  0  0  0  0  0  0  0  0  0
    4.2972   -1.2405    0.0000 C   0  0  0  0  0  0  0  0  0  0  0  0
    5.0134   -0.8270    0.0000 C   0  0  0  0  0  0  0  0  0  0  0  0
    5.7296   -1.2405    0.0000 C   0  0  0  0  0  0  0  0  0  0  0  0
    5.7296   -2.0675    0.0000 C   0  0  0  0  0  0  0  0  0  0  0  0
    5.0134   -2.4810    0.0000 N   0  0  0  0  0  0  0  0  0  0  0  0
    4.2972   -2.0675    0.0000 C   0  0  0  0  0  0  0  0  0  0  0  0
    2.8648    0.4135    0.0000 C   0  0  0  0  0  0  0  0  0  0  0  0
    2.8648    1.2405    0.0000 C   0  0  0  0  0  0  0  0  0  0  0  0
    2.1486    1.6540    0.0000 C   0  0  0  0  0  0  0  0  0  0  0  0
    1.4324    1.2405    0.0000 C   0  0  0  0  0  0  0  0  0  0  0  0
    0.7162    1.6540    0.0000 C   0  0  0  0  0  0  0  0  0  0  0  0
    0.0000    1.2405    0.0000 C   0  0  0  0  0  0  0  0  0  0  0  0
    0.0000    0.4135    0.0000 C   0  0  0  0  0  0  0  0  0  0  0  0
    0.7162    0.0000    0.0000 C   0  0  0  0  0  0  0  0  0  0  0  0
    1.4324    0.4135    0.0000 C   0  0  0  0  0  0  0  0  0  0  0  0
  1  2  2  0  0  0
  2 14  1  0  0  0
  2  3  1  0  0  0
  3  4  1  0  0  0
  4  5  1  0  0  0
  5  6  1  0  0  0
  6  7  1  0  0  0
  7 12  1  0  0  0
  7  8  2  0  0  0
  8  9  1  0  0  0
  9 10  2  0  0  0
 10 11  1  0  0  0
 11 12  2  0  0  0
  5 13  1  0  0  0
 13 14  1  0  0  0
 14 15  1  0  0  0
 15 16  1  0  0  0
 16 21  1  0  0  0
 16 17  2  0  0  0
 17 18  1  0  0  0
 18 19  2  0  0  0
 19 20  1  0  0  0
 20 21  2  0  0  0
M  END
>  <Entry>
256

>  <title>
15-2043

>  <rigid docking scores>
-15.6837

>  <InChIKey>
DQHSAWRPLVXZDM-UHFFFAOYSA-N

$$$$
atoms 23 bonds 24
dotmatics
mol io
 23 24  0  0  0  0  0  0  0  0999 V2000
    7.1620    1.0338    0.0000 C   0  0  0  0  0  0  0  0  0  0  0  0
    7.1620    0.2068    0.0000 C   0  0  0  0  0  0  0  0  0  0  0  0
    7.8782   -0.2068    0.0000 C   0  0  0  0  0  0  0  0  0  0  0  0
    7.8782   -1.0338    0.0000 C   0  0  0  0  0  0  0  0  0  0  0  0
    7.1620   -1.4473    0.0000 C   0  0  0  0  0  0  0  0  0  0  0  0
    6.4458   -1.0338    0.0000 C   0  0  0  0  0  0  0  0  0  0  0  0
    5.7296   -1.4473    0.0000 N   0  0  0  0  0  0  0  0  0  0  0  0
    5.0134   -1.0338    0.0000 C   0  0  0  0  0  0  0  0  0  0  0  0
    5.0134   -0.2068    0.0000 O   0  0  0  0  0  0  0  0  0  0  0  0
    4.2972   -1.4473    0.0000 N   0  0  0  0  0  0  0  0  0  0  0  0
    3.5810   -1.0337    0.0000 C   0  0  0  0  0  0  0  0  0  0  0  0
    2.8648   -1.4472    0.0000 C   0  0  0  0  0  0  0  0  0  0  0  0
    2.1486   -1.0337    0.0000 C   0  0  0  0  0  0  0  0  0  0  0  0
    2.1486   -0.2067    0.0000 C   0  0  0  0  0  0  0  0  0  0  0  0
    1.4324    0.2068    0.0000 S   0  0  0  0  0  0  0  0  0  0  0  0
    1.8459    0.9230    0.0000 O   0  0  0  0  0  0  0  0  0  0  0  0
    1.0189   -0.5095    0.0000 O   0  0  0  0  0  0  0  0  0  0  0  0
    0.7162    0.6203    0.0000 N   0  0  0  0  0  0  0  0  0  0  0  0
    0.0000    0.2068    0.0000 C   0  0  0  0  0  0  0  0  0  0  0  0
    0.7162    1.4473    0.0000 C   0  0  0  0  0  0  0  0  0  0  0  0
    2.8648    0.2068    0.0000 C   0  0  0  0  0  0  0  0  0  0  0  0
    3.5810   -0.2067    0.0000 C   0  0  0  0  0  0  0  0  0  0  0  0
    6.4458   -0.2068    0.0000 C   0  0  0  0  0  0  0  0  0  0  0  0
  1  2  1  0  0  0
  2 23  1  0  0  0
  2  3  2  0  0  0
  3  4  1  0  0  0
  4  5  2  0  0  0
  5  6  1  0  0  0
  6  7  1  0  0  0
  7  8  1  0  0  0
  8  9  2  0  0  0
  8 10  1  0  0  0
 10 11  1  0  0  0
 11 22  1  0  0  0
 11 12  2  0  0  0
 12 13  1  0  0  0
 13 14  2  0  0  0
 14 15  1  0  0  0
 15 16  2  0  0  0
 15 17  2  0  0  0
 15 18  1  0  0  0
 18 19  1  0  0  0
 18 20  1  0  0  0
 14 21  1  0  0  0
 21 22  2  0  0  0
  6 23  2  0  0  0
M  END
>  <Entry>
257

>  <title>
15-2063

>  <rigid docking scores>
-17.6896

>  <InChIKey>
SCRLUOKHKLNYOX-UHFFFAOYSA-N

$$$$
atoms 18 bonds 20
dotmatics
mol io
 18 20  0  0  0  0  0  0  0  0999 V2000
    5.2087    1.7377    0.0000 O   0  0  0  0  0  0  0  0  0  0  0  0
    5.2087    0.9107    0.0000 C   0  0  0  0  0  0  0  0  0  0  0  0
    5.9249    0.4972    0.0000 C   0  0  0  0  0  0  0  0  0  0  0  0
    5.9249   -0.3298    0.0000 C   0  0  0  0  0  0  0  0  0  0  0  0
    5.2087   -0.7433    0.0000 C   0  0  0  0  0  0  0  0  0  0  0  0
    4.4925   -0.3298    0.0000 C   0  0  0  0  0  0  0  0  0  0  0  0
    3.7763   -0.7433    0.0000 C   0  0  0  0  0  0  0  0  0  0  0  0
    3.6898   -1.5658    0.0000 C   0  0  0  0  0  0  0  0  0  0  0  0
    2.8809   -1.7377    0.0000 S   0  0  0  0  0  0  0  0  0  0  0  0
    2.4674   -1.0215    0.0000 C   0  0  0  0  0  0  0  0  0  0  0  0
    1.6449   -0.9351    0.0000 N   0  0  0  0  0  0  0  0  0  0  0  0
    1.1588   -1.6041    0.0000 C   0  0  0  0  0  0  0  0  0  0  0  0
    0.3364   -1.5177    0.0000 C   0  0  0  0  0  0  0  0  0  0  0  0
    0.0000   -0.7622    0.0000 O   0  0  0  0  0  0  0  0  0  0  0  0
    0.4861   -0.0931    0.0000 C   0  0  0  0  0  0  0  0  0  0  0  0
    1.3086   -0.1796    0.0000 C   0  0  0  0  0  0  0  0  0  0  0  0
    3.0208   -0.4069    0.0000 N   0  0  0  0  0  0  0  0  0  0  0  0
    4.4925    0.4972    0.0000 C   0  0  0  0  0  0  0  0  0  0  0  0
  1  2  1  0  0  0
  2 18  1  0  0  0
  2  3  2  0  0  0
  3  4  1  0  0  0
  4  5  2  0  0  0
  5  6  1  0  0  0
  6  7  1  0  0  0
  7 17  1  0  0  0
  7  8  2  0  0  0
  8  9  1  0  0  0
  9 10  1  0  0  0
 10 11  1  0  0  0
 11 16  1  0  0  0
 11 12  1  0  0  0
 12 13  1  0  0  0
 13 14  1  0  0  0
 14 15  1  0  0  0
 15 16  1  0  0  0
 10 17  2  0  0  0
  6 18  2  0  0  0
M  END
>  <Entry>
258

>  <title>
15-2975

>  <rigid docking scores>
-16.6143

>  <InChIKey>
RWNCZWONJOSWHK-UHFFFAOYSA-N

$$$$
atoms 22 bonds 23
dotmatics
mol io
 22 23  0  0  0  0  0  0  0  0999 V2000
   -4.3418    2.8648    0.0000 C   0  0  0  0  0  0  0  0  0  0  0  0
   -3.5148    2.8648    0.0000 C   0  0  0  0  0  0  0  0  0  0  0  0
   -3.1012    3.5810    0.0000 C   0  0  0  0  0  0  0  0  0  0  0  0
   -2.2743    3.5810    0.0000 C   0  0  0  0  0  0  0  0  0  0  0  0
   -1.8607    2.8648    0.0000 C   0  0  0  0  0  0  0  0  0  0  0  0
   -1.0338    2.8648    0.0000 N   0  0  0  0  0  0  0  0  0  0  0  0
   -0.6202    2.1486    0.0000 C   0  0  0  0  0  0  0  0  0  0  0  0
   -1.0338    1.4324    0.0000 O   0  0  0  0  0  0  0  0  0  0  0  0
    0.2068    2.1486    0.0000 C   0  0  0  0  0  0  0  0  0  0  0  0
    0.6202    1.4324    0.0000 N   0  0  0  0  0  0  0  0  0  0  0  0
    1.4473    1.4324    0.0000 C   0  0  0  0  0  0  0  0  0  0  0  0
    1.8607    2.1486    0.0000 O   0  0  0  0  0  0  0  0  0  0  0  0
    1.8607    0.7162    0.0000 C   0  0  0  0  0  0  0  0  0  0  0  0
    2.6878    0.7162    0.0000 C   0  0  0  0  0  0  0  0  0  0  0  0
    3.1012    1.4324    0.0000 C   0  0  0  0  0  0  0  0  0  0  0  0
    3.9283    1.4324    0.0000 C   0  0  0  0  0  0  0  0  0  0  0  0
    4.3418    0.7162    0.0000 C   0  0  0  0  0  0  0  0  0  0  0  0
    3.9283   -0.0000    0.0000 C   0  0  0  0  0  0  0  0  0  0  0  0
    3.1012   -0.0000    0.0000 C   0  0  0  0  0  0  0  0  0  0  0  0
   -2.2743    2.1486    0.0000 C   0  0  0  0  0  0  0  0  0  0  0  0
   -3.1012    2.1486    0.0000 C   0  0  0  0  0  0  0  0  0  0  0  0
   -3.5148    1.4324    0.0000 C   0  0  0  0  0  0  0  0  0  0  0  0
  1  2  1  0  0  0
  2 21  1  0  0  0
  2  3  2  0  0  0
  3  4  1  0  0  0
  4  5  2  0  0  0
  5  6  1  0  0  0
  6  7  1  0  0  0
  7  8  2  0  0  0
  7  9  1  0  0  0
  9 10  1  0  0  0
 10 11  1  0  0  0
 11 12  2  0  0  0
 11 13  1  0  0  0
 13 14  1  0  0  0
 14 19  1  0  0  0
 14 15  2  0  0  0
 15 16  1  0  0  0
 16 17  2  0  0  0
 17 18  1  0  0  0
 18 19  2  0  0  0
  5 20  1  0  0  0
 20 21  2  0  0  0
 21 22  1  0  0  0
M  END
>  <Entry>
259

>  <title>
15-3781

>  <rigid docking scores>
-16.0568

>  <InChIKey>
IREXVZAHFLVCSP-UHFFFAOYSA-N

>  <Pubchem>
9416180

>  <Mcule>
MCULE-8311436135

$$$$
atoms 21 bonds 23
dotmatics
mol io
 21 23  0  0  0  0  0  0  0  0999 V2000
    0.0000    2.8482    0.0000 C   0  0  0  0  0  0  0  0  0  0  0  0
    0.7158    2.4341    0.0000 C   0  0  0  0  0  0  0  0  0  0  0  0
    0.7158    1.6059    0.0000 C   0  0  0  0  0  0  0  0  0  0  0  0
    1.4317    1.1917    0.0000 C   0  0  0  0  0  0  0  0  0  0  0  0
    2.1475    1.6059    0.0000 N   0  0  0  0  0  0  0  0  0  0  0  0
    2.9344    1.3515    0.0000 C   0  0  0  0  0  0  0  0  0  0  0  0
    3.1868    0.5639    0.0000 C   0  0  0  0  0  0  0  0  0  0  0  0
    3.9950    0.3888    0.0000 O   0  0  0  0  0  0  0  0  0  0  0  0
    2.6310   -0.0484    0.0000 N   0  0  0  0  0  0  0  0  0  0  0  0
    2.8834   -0.8360    0.0000 C   0  0  0  0  0  0  0  0  0  0  0  0
    2.3276   -1.4483    0.0000 C   0  0  0  0  0  0  0  0  0  0  0  0
    2.5800   -2.2359    0.0000 C   0  0  0  0  0  0  0  0  0  0  0  0
    2.0241   -2.8482    0.0000 C   0  0  0  0  0  0  0  0  0  0  0  0
    1.2159   -2.6731    0.0000 C   0  0  0  0  0  0  0  0  0  0  0  0
    0.9635   -1.8855    0.0000 N   0  0  0  0  0  0  0  0  0  0  0  0
    1.5193   -1.2732    0.0000 C   0  0  0  0  0  0  0  0  0  0  0  0
    3.4254    2.0200    0.0000 C   0  0  0  0  0  0  0  0  0  0  0  0
    4.2524    2.0200    0.0000 C   0  0  0  0  0  0  0  0  0  0  0  0
    2.9344    2.6885    0.0000 N   0  0  0  0  0  0  0  0  0  0  0  0
    2.1475    2.4341    0.0000 C   0  0  0  0  0  0  0  0  0  0  0  0
    1.4317    2.8482    0.0000 C   0  0  0  0  0  0  0  0  0  0  0  0
  1  2  1  0  0  0
  2 21  2  0  0  0
  2  3  1  0  0  0
  3  4  2  0  0  0
  4  5  1  0  0  0
  5 20  1  0  0  0
  5  6  1  0  0  0
  6  7  1  0  0  0
  7  8  2  0  0  0
  7  9  1  0  0  0
  9 10  1  0  0  0
 10 11  1  0  0  0
 11 16  1  0  0  0
 11 12  2  0  0  0
 12 13  1  0  0  0
 13 14  2  0  0  0
 14 15  1  0  0  0
 15 16  2  0  0  0
  6 17  2  0  0  0
 17 18  1  0  0  0
 17 19  1  0  0  0
 19 20  2  0  0  0
 20 21  1  0  0  0
M  END
>  <Entry>
260

>  <title>
15-3919

>  <rigid docking scores>
-16.3106

>  <InChIKey>
PCHIYWZBTFXTPK-UHFFFAOYSA-N

>  <Pubchem>
84304158

$$$$
atoms 21 bonds 23
dotmatics
mol io
 21 23  0  0  0  0  0  0  0  0999 V2000
    2.2899    2.8556    0.0000 C   0  0  0  0  0  0  0  0  0  0  0  0
    2.2041    2.0330    0.0000 C   0  0  0  0  0  0  0  0  0  0  0  0
    2.8192    1.4802    0.0000 C   0  0  0  0  0  0  0  0  0  0  0  0
    2.4835    0.7244    0.0000 C   0  0  0  0  0  0  0  0  0  0  0  0
    2.8976    0.0085    0.0000 C   0  0  0  0  0  0  0  0  0  0  0  0
    3.7246    0.0093    0.0000 O   0  0  0  0  0  0  0  0  0  0  0  0
    2.4847   -0.7080    0.0000 N   0  0  0  0  0  0  0  0  0  0  0  0
    2.8989   -1.4239    0.0000 C   0  0  0  0  0  0  0  0  0  0  0  0
    3.7271   -1.4239    0.0000 C   0  0  0  0  0  0  0  0  0  0  0  0
    4.1412   -2.1397    0.0000 C   0  0  0  0  0  0  0  0  0  0  0  0
    3.7271   -2.8556    0.0000 C   0  0  0  0  0  0  0  0  0  0  0  0
    2.8989   -2.8556    0.0000 C   0  0  0  0  0  0  0  0  0  0  0  0
    2.4847   -2.1397    0.0000 C   0  0  0  0  0  0  0  0  0  0  0  0
    1.6565   -2.1397    0.0000 N   0  0  0  0  0  0  0  0  0  0  0  0
    1.2424   -2.8556    0.0000 C   0  0  0  0  0  0  0  0  0  0  0  0
    0.4141   -2.8556    0.0000 C   0  0  0  0  0  0  0  0  0  0  0  0
    0.0000   -2.1397    0.0000 O   0  0  0  0  0  0  0  0  0  0  0  0
    0.4141   -1.4239    0.0000 C   0  0  0  0  0  0  0  0  0  0  0  0
    1.2424   -1.4239    0.0000 C   0  0  0  0  0  0  0  0  0  0  0  0
    1.6609    0.8101    0.0000 N   0  0  0  0  0  0  0  0  0  0  0  0
    1.4883    1.6189    0.0000 O   0  0  0  0  0  0  0  0  0  0  0  0
  1  2  1  0  0  0
  2 21  1  0  0  0
  2  3  2  0  0  0
  3  4  1  0  0  0
  4  5  1  0  0  0
  5  6  2  0  0  0
  5  7  1  0  0  0
  7  8  1  0  0  0
  8 13  1  0  0  0
  8  9  2  0  0  0
  9 10  1  0  0  0
 10 11  2  0  0  0
 11 12  1  0  0  0
 12 13  2  0  0  0
 13 14  1  0  0  0
 14 19  1  0  0  0
 14 15  1  0  0  0
 15 16  1  0  0  0
 16 17  1  0  0  0
 17 18  1  0  0  0
 18 19  1  0  0  0
  4 20  2  0  0  0
 20 21  1  0  0  0
M  END
>  <Entry>
261

>  <title>
15-4671

>  <rigid docking scores>
-15.7518

>  <InChIKey>
RHQAKBHGMGWPDX-UHFFFAOYSA-N

>  <ChEMBL>
CHEMBL1554134

>  <ZINC>
ZINC000005689733

>  <eMolecules>
3410841

>  <Pubchem>
4786601

>  <Mcule>
MCULE-7865485451

>  <MolPort>
MolPort-004-088-722

$$$$
atoms 23 bonds 26
dotmatics
mol io
 23 26  0  0  0  0  0  0  0  0999 V2000
    0.0000   -2.2755    0.0000 C   0  0  0  0  0  0  0  0  0  0  0  0
    0.7162   -2.6890    0.0000 C   0  0  0  0  0  0  0  0  0  0  0  0
    1.4324   -2.2755    0.0000 N   0  0  0  0  0  0  0  0  0  0  0  0
    1.4324   -1.4485    0.0000 C   0  0  0  0  0  0  0  0  0  0  0  0
    2.1486   -1.0350    0.0000 C   0  0  0  0  0  0  0  0  0  0  0  0
    2.8648   -1.4485    0.0000 N   0  0  0  0  0  0  0  0  0  0  0  0
    3.5810   -1.0350    0.0000 C   0  0  0  0  0  0  0  0  0  0  0  0
    3.5810   -0.2080    0.0000 C   0  0  0  0  0  0  0  0  0  0  0  0
    4.2972    0.2055    0.0000 C   0  0  0  0  0  0  0  0  0  0  0  0
    4.2972    1.0325    0.0000 C   0  0  0  0  0  0  0  0  0  0  0  0
    3.5814    1.4466    0.0000 C   0  0  0  0  0  0  0  0  0  0  0  0
    3.5814    2.2749    0.0000 C   0  0  0  0  0  0  0  0  0  0  0  0
    4.2972    2.6890    0.0000 N   0  0  0  0  0  0  0  0  0  0  0  0
    5.0131    2.2749    0.0000 C   0  0  0  0  0  0  0  0  0  0  0  0
    5.7999    2.5293    0.0000 N   0  0  0  0  0  0  0  0  0  0  0  0
    6.2909    1.8608    0.0000 C   0  0  0  0  0  0  0  0  0  0  0  0
    5.7999    1.1922    0.0000 C   0  0  0  0  0  0  0  0  0  0  0  0
    5.0131    1.4466    0.0000 C   0  0  0  0  0  0  0  0  0  0  0  0
    5.0134   -0.2080    0.0000 N   0  0  0  0  0  0  0  0  0  0  0  0
    5.0134   -1.0350    0.0000 C   0  0  0  0  0  0  0  0  0  0  0  0
    4.2972   -1.4485    0.0000 N   0  0  0  0  0  0  0  0  0  0  0  0
    2.8648   -2.2755    0.0000 C   0  0  0  0  0  0  0  0  0  0  0  0
    2.1486   -2.6890    0.0000 C   0  0  0  0  0  0  0  0  0  0  0  0
  1  2  1  0  0  0
  2  3  1  0  0  0
  3 23  1  0  0  0
  3  4  1  0  0  0
  4  5  1  0  0  0
  5  6  1  0  0  0
  6  7  1  0  0  0
  7 21  1  0  0  0
  7  8  2  0  0  0
  8  9  1  0  0  0
  9 10  1  0  0  0
 10 18  1  0  0  0
 10 11  2  0  0  0
 11 12  1  0  0  0
 12 13  2  0  0  0
 13 14  1  0  0  0
 14 18  2  0  0  0
 14 15  1  0  0  0
 15 16  1  0  0  0
 16 17  2  0  0  0
 17 18  1  0  0  0
  9 19  2  0  0  0
 19 20  1  0  0  0
 20 21  2  0  0  0
  6 22  1  0  0  0
 22 23  1  0  0  0
M  END
>  <Entry>
262

>  <title>
15-5598

>  <rigid docking scores>
-17.2

>  <InChIKey>
OKZDIJRXVGISGX-UHFFFAOYSA-N

$$$$
atoms 20 bonds 23
dotmatics
mol io
 20 23  0  0  0  0  0  0  0  0999 V2000
    2.0777   -2.5233    0.0000 C   0  0  0  0  0  0  0  0  0  0  0  0
    1.8250   -1.7359    0.0000 N   0  0  0  0  0  0  0  0  0  0  0  0
    1.0167   -1.5610    0.0000 C   0  0  0  0  0  0  0  0  0  0  0  0
    0.7640   -0.7735    0.0000 C   0  0  0  0  0  0  0  0  0  0  0  0
    1.3197   -0.1610    0.0000 N   0  0  0  0  0  0  0  0  0  0  0  0
    1.0670    0.6265    0.0000 C   0  0  0  0  0  0  0  0  0  0  0  0
    0.2549    0.8043    0.0000 N   0  0  0  0  0  0  0  0  0  0  0  0
    0.0000    1.5927    0.0000 C   0  0  0  0  0  0  0  0  0  0  0  0
    0.5513    2.2092    0.0000 N   0  0  0  0  0  0  0  0  0  0  0  0
    1.3633    2.0373    0.0000 C   0  0  0  0  0  0  0  0  0  0  0  0
    2.0391    2.5233    0.0000 S   0  0  0  0  0  0  0  0  0  0  0  0
    2.7089    2.0373    0.0000 C   0  0  0  0  0  0  0  0  0  0  0  0
    2.4540    1.2430    0.0000 C   0  0  0  0  0  0  0  0  0  0  0  0
    1.6242    1.2430    0.0000 C   0  0  0  0  0  0  0  0  0  0  0  0
    3.0053    0.6265    0.0000 C   0  0  0  0  0  0  0  0  0  0  0  0
    3.8174    0.8043    0.0000 C   0  0  0  0  0  0  0  0  0  0  0  0
    4.0723    1.5927    0.0000 C   0  0  0  0  0  0  0  0  0  0  0  0
    3.5210    2.2092    0.0000 C   0  0  0  0  0  0  0  0  0  0  0  0
    2.1280   -0.3359    0.0000 C   0  0  0  0  0  0  0  0  0  0  0  0
    2.3806   -1.1233    0.0000 C   0  0  0  0  0  0  0  0  0  0  0  0
  1  2  1  0  0  0
  2 20  1  0  0  0
  2  3  1  0  0  0
  3  4  1  0  0  0
  4  5  1  0  0  0
  5  6  1  0  0  0
  6 14  1  0  0  0
  6  7  2  0  0  0
  7  8  1  0  0  0
  8  9  2  0  0  0
  9 10  1  0  0  0
 10 14  2  0  0  0
 10 11  1  0  0  0
 11 12  1  0  0  0
 12 18  1  0  0  0
 12 13  2  0  0  0
 13 14  1  0  0  0
 13 15  1  0  0  0
 15 16  1  0  0  0
 16 17  1  0  0  0
 17 18  1  0  0  0
  5 19  1  0  0  0
 19 20  1  0  0  0
M  END
>  <Entry>
263

>  <title>
15-5864

>  <rigid docking scores>
-16.8946

>  <InChIKey>
HKNOTMQCWHAILJ-UHFFFAOYSA-N

>  <ZINC>
ZINC000003683647

>  <eMolecules>
1010230

>  <Pubchem>
2808923

>  <Mcule>
MCULE-6924004448

>  <MolPort>
MolPort-000-225-322

$$$$
atoms 17 bonds 19
dotmatics
mol io
 17 19  0  0  0  0  0  0  0  0999 V2000
    6.7334    0.0000    0.0000 C   0  0  0  0  0  0  0  0  0  0  0  0
    5.9064    0.0000    0.0000 N   0  0  0  0  0  0  0  0  0  0  0  0
    5.4929   -0.7162    0.0000 C   0  0  0  0  0  0  0  0  0  0  0  0
    4.6659   -0.7162    0.0000 C   0  0  0  0  0  0  0  0  0  0  0  0
    4.2524    0.0000    0.0000 N   0  0  0  0  0  0  0  0  0  0  0  0
    3.4254    0.0000    0.0000 C   0  0  0  0  0  0  0  0  0  0  0  0
    2.9344   -0.6685    0.0000 N   0  0  0  0  0  0  0  0  0  0  0  0
    2.1475   -0.4141    0.0000 C   0  0  0  0  0  0  0  0  0  0  0  0
    1.4317   -0.8282    0.0000 C   0  0  0  0  0  0  0  0  0  0  0  0
    0.7158   -0.4141    0.0000 C   0  0  0  0  0  0  0  0  0  0  0  0
    0.0000   -0.8282    0.0000 Br  0  0  0  0  0  0  0  0  0  0  0  0
    0.7158    0.4141    0.0000 C   0  0  0  0  0  0  0  0  0  0  0  0
    1.4317    0.8282    0.0000 C   0  0  0  0  0  0  0  0  0  0  0  0
    2.1475    0.4141    0.0000 C   0  0  0  0  0  0  0  0  0  0  0  0
    2.9344    0.6685    0.0000 N   0  0  0  0  0  0  0  0  0  0  0  0
    4.6659    0.7162    0.0000 C   0  0  0  0  0  0  0  0  0  0  0  0
    5.4929    0.7162    0.0000 C   0  0  0  0  0  0  0  0  0  0  0  0
  1  2  1  0  0  0
  2 17  1  0  0  0
  2  3  1  0  0  0
  3  4  1  0  0  0
  4  5  1  0  0  0
  5  6  1  0  0  0
  6 15  1  0  0  0
  6  7  2  0  0  0
  7  8  1  0  0  0
  8 14  1  0  0  0
  8  9  2  0  0  0
  9 10  1  0  0  0
 10 11  1  0  0  0
 10 12  2  0  0  0
 12 13  1  0  0  0
 13 14  2  0  0  0
 14 15  1  0  0  0
  5 16  1  0  0  0
 16 17  1  0  0  0
M  END
>  <Entry>
264

>  <title>
15-5968

>  <rigid docking scores>
-16.3423

>  <InChIKey>
QJPKKWAXTUHJPD-UHFFFAOYSA-N

$$$$
atoms 22 bonds 24
dotmatics
mol io
 22 24  0  0  0  0  0  0  0  0999 V2000
    8.6904    1.0709    0.0000 F   0  0  0  0  0  0  0  0  0  0  0  0
    7.8634    1.0716    0.0000 C   0  0  0  0  0  0  0  0  0  0  0  0
    7.4492    0.3558    0.0000 C   0  0  0  0  0  0  0  0  0  0  0  0
    6.6222    0.3565    0.0000 C   0  0  0  0  0  0  0  0  0  0  0  0
    6.2094    1.0730    0.0000 C   0  0  0  0  0  0  0  0  0  0  0  0
    5.3824    1.0738    0.0000 C   0  0  0  0  0  0  0  0  0  0  0  0
    4.9682    0.3579    0.0000 C   0  0  0  0  0  0  0  0  0  0  0  0
    4.1412    0.3586    0.0000 N   0  0  0  0  0  0  0  0  0  0  0  0
    3.7271   -0.3572    0.0000 C   0  0  0  0  0  0  0  0  0  0  0  0
    4.1412   -1.0730    0.0000 C   0  0  0  0  0  0  0  0  0  0  0  0
    3.7271   -1.7889    0.0000 C   0  0  0  0  0  0  0  0  0  0  0  0
    2.8989   -1.7889    0.0000 N   0  0  0  0  0  0  0  0  0  0  0  0
    2.4847   -1.0730    0.0000 C   0  0  0  0  0  0  0  0  0  0  0  0
    1.6565   -1.0730    0.0000 C   0  0  0  0  0  0  0  0  0  0  0  0
    1.2424   -1.7889    0.0000 C   0  0  0  0  0  0  0  0  0  0  0  0
    0.4141   -1.7889    0.0000 C   0  0  0  0  0  0  0  0  0  0  0  0
    0.0000   -1.0730    0.0000 C   0  0  0  0  0  0  0  0  0  0  0  0
    0.4141   -0.3572    0.0000 C   0  0  0  0  0  0  0  0  0  0  0  0
    1.2424   -0.3572    0.0000 N   0  0  0  0  0  0  0  0  0  0  0  0
    2.8989   -0.3572    0.0000 N   0  0  0  0  0  0  0  0  0  0  0  0
    6.6235    1.7889    0.0000 C   0  0  0  0  0  0  0  0  0  0  0  0
    7.4505    1.7882    0.0000 C   0  0  0  0  0  0  0  0  0  0  0  0
  1  2  1  0  0  0
  2 22  1  0  0  0
  2  3  2  0  0  0
  3  4  1  0  0  0
  4  5  2  0  0  0
  5  6  1  0  0  0
  6  7  1  0  0  0
  7  8  1  0  0  0
  8  9  1  0  0  0
  9 20  1  0  0  0
  9 10  2  0  0  0
 10 11  1  0  0  0
 11 12  2  0  0  0
 12 13  1  0  0  0
 13 14  1  0  0  0
 14 19  1  0  0  0
 14 15  2  0  0  0
 15 16  1  0  0  0
 16 17  2  0  0  0
 17 18  1  0  0  0
 18 19  2  0  0  0
 13 20  2  0  0  0
  5 21  1  0  0  0
 21 22  2  0  0  0
M  END
>  <Entry>
265

>  <title>
15-6435

>  <rigid docking scores>
-19.814

>  <InChIKey>
PWMGAJQZTJIPMK-UHFFFAOYSA-N

$$$$
atoms 23 bonds 25
dotmatics
mol io
 23 25  0  0  0  0  0  0  0  0999 V2000
    0.7162    1.2405    0.0000 O   0  0  0  0  0  0  0  0  0  0  0  0
    1.4324    0.8270    0.0000 C   0  0  0  0  0  0  0  0  0  0  0  0
    1.4324    0.0000    0.0000 C   0  0  0  0  0  0  0  0  0  0  0  0
    2.1486   -0.4135    0.0000 C   0  0  0  0  0  0  0  0  0  0  0  0
    2.1486   -1.2405    0.0000 C   0  0  0  0  0  0  0  0  0  0  0  0
    1.4324   -1.6540    0.0000 C   0  0  0  0  0  0  0  0  0  0  0  0
    1.4324   -2.4810    0.0000 O   0  0  0  0  0  0  0  0  0  0  0  0
    0.7162   -1.2405    0.0000 C   0  0  0  0  0  0  0  0  0  0  0  0
    0.0000   -1.6540    0.0000 O   0  0  0  0  0  0  0  0  0  0  0  0
    0.7162   -0.4135    0.0000 C   0  0  0  0  0  0  0  0  0  0  0  0
    2.1486    1.2405    0.0000 N   0  0  0  0  0  0  0  0  0  0  0  0
    2.1486    2.0675    0.0000 C   0  0  0  0  0  0  0  0  0  0  0  0
    2.8648    2.4810    0.0000 C   0  0  0  0  0  0  0  0  0  0  0  0
    3.5810    2.0675    0.0000 N   0  0  0  0  0  0  0  0  0  0  0  0
    4.2972    2.4810    0.0000 C   0  0  0  0  0  0  0  0  0  0  0  0
    5.0134    2.0675    0.0000 C   0  0  0  0  0  0  0  0  0  0  0  0
    5.7296    2.4810    0.0000 C   0  0  0  0  0  0  0  0  0  0  0  0
    6.4458    2.0675    0.0000 C   0  0  0  0  0  0  0  0  0  0  0  0
    6.4458    1.2405    0.0000 C   0  0  0  0  0  0  0  0  0  0  0  0
    5.7296    0.8270    0.0000 C   0  0  0  0  0  0  0  0  0  0  0  0
    5.0134    1.2405    0.0000 C   0  0  0  0  0  0  0  0  0  0  0  0
    3.5810    1.2405    0.0000 C   0  0  0  0  0  0  0  0  0  0  0  0
    2.8648    0.8270    0.0000 C   0  0  0  0  0  0  0  0  0  0  0  0
  1  2  2  0  0  0
  2  3  1  0  0  0
  3 10  1  0  0  0
  3  4  2  0  0  0
  4  5  1  0  0  0
  5  6  2  0  0  0
  6  7  1  0  0  0
  6  8  1  0  0  0
  8  9  1  0  0  0
  8 10  2  0  0  0
  2 11  1  0  0  0
 11 23  1  0  0  0
 11 12  1  0  0  0
 12 13  1  0  0  0
 13 14  1  0  0  0
 14 15  1  0  0  0
 15 16  1  0  0  0
 16 21  1  0  0  0
 16 17  2  0  0  0
 17 18  1  0  0  0
 18 19  2  0  0  0
 19 20  1  0  0  0
 20 21  2  0  0  0
 14 22  1  0  0  0
 22 23  1  0  0  0
M  END
>  <Entry>
266

>  <title>
15-8262

>  <rigid docking scores>
-15.9813

>  <InChIKey>
OQUBFSVYJOQRLY-UHFFFAOYSA-N

>  <Pubchem>
113199224

$$$$
atoms 21 bonds 23
dotmatics
mol io
 21 23  0  0  0  0  0  0  0  0999 V2000
   -3.9574    2.9244    0.0000 C   0  0  0  0  0  0  0  0  0  0  0  0
   -3.1304    2.9244    0.0000 N   0  0  0  0  0  0  0  0  0  0  0  0
   -2.7169    3.6406    0.0000 C   0  0  0  0  0  0  0  0  0  0  0  0
   -1.8899    3.6406    0.0000 C   0  0  0  0  0  0  0  0  0  0  0  0
   -1.4764    2.9244    0.0000 C   0  0  0  0  0  0  0  0  0  0  0  0
   -0.6494    2.9244    0.0000 N   0  0  0  0  0  0  0  0  0  0  0  0
   -0.2359    3.6406    0.0000 C   0  0  0  0  0  0  0  0  0  0  0  0
   -0.2359    2.2082    0.0000 C   0  0  0  0  0  0  0  0  0  0  0  0
    0.5911    2.2082    0.0000 C   0  0  0  0  0  0  0  0  0  0  0  0
    1.0772    2.8772    0.0000 N   0  0  0  0  0  0  0  0  0  0  0  0
    1.8638    2.6217    0.0000 N   0  0  0  0  0  0  0  0  0  0  0  0
    1.8638    1.7947    0.0000 C   0  0  0  0  0  0  0  0  0  0  0  0
    2.5328    1.3086    0.0000 C   0  0  0  0  0  0  0  0  0  0  0  0
    3.2883    1.6449    0.0000 C   0  0  0  0  0  0  0  0  0  0  0  0
    3.9574    1.1588    0.0000 C   0  0  0  0  0  0  0  0  0  0  0  0
    3.8709    0.3364    0.0000 C   0  0  0  0  0  0  0  0  0  0  0  0
    3.1154   -0.0000    0.0000 N   0  0  0  0  0  0  0  0  0  0  0  0
    2.4464    0.4861    0.0000 C   0  0  0  0  0  0  0  0  0  0  0  0
    1.0772    1.5391    0.0000 O   0  0  0  0  0  0  0  0  0  0  0  0
   -1.8899    2.2082    0.0000 C   0  0  0  0  0  0  0  0  0  0  0  0
   -2.7169    2.2082    0.0000 C   0  0  0  0  0  0  0  0  0  0  0  0
  1  2  1  0  0  0
  2 21  1  0  0  0
  2  3  1  0  0  0
  3  4  1  0  0  0
  4  5  1  0  0  0
  5  6  1  0  0  0
  6  7  1  0  0  0
  6  8  1  0  0  0
  8  9  1  0  0  0
  9 19  1  0  0  0
  9 10  2  0  0  0
 10 11  1  0  0  0
 11 12  2  0  0  0
 12 13  1  0  0  0
 13 18  1  0  0  0
 13 14  2  0  0  0
 14 15  1  0  0  0
 15 16  2  0  0  0
 16 17  1  0  0  0
 17 18  2  0  0  0
 12 19  1  0  0  0
  5 20  1  0  0  0
 20 21  1  0  0  0
M  END
>  <Entry>
267

>  <title>
2-5507

>  <rigid docking scores>
-15.9724

>  <InChIKey>
PTXPPPKJRHEGRE-UHFFFAOYSA-N

$$$$
atoms 21 bonds 23
dotmatics
mol io
 21 23  0  0  0  0  0  0  0  0999 V2000
    0.0000   -2.3313    0.0000 N   0  0  0  0  0  0  0  0  0  0  0  0
    0.7162   -1.9178    0.0000 C   0  0  0  0  0  0  0  0  0  0  0  0
    1.4324   -2.3313    0.0000 O   0  0  0  0  0  0  0  0  0  0  0  0
    0.7162   -1.0908    0.0000 C   0  0  0  0  0  0  0  0  0  0  0  0
    0.0004   -0.6767    0.0000 C   0  0  0  0  0  0  0  0  0  0  0  0
    0.0004    0.1515    0.0000 C   0  0  0  0  0  0  0  0  0  0  0  0
    0.7162    0.5657    0.0000 N   0  0  0  0  0  0  0  0  0  0  0  0
    1.4320    0.1515    0.0000 C   0  0  0  0  0  0  0  0  0  0  0  0
    1.4320   -0.6767    0.0000 C   0  0  0  0  0  0  0  0  0  0  0  0
    2.2189   -0.9311    0.0000 C   0  0  0  0  0  0  0  0  0  0  0  0
    2.7099   -0.2626    0.0000 N   0  0  0  0  0  0  0  0  0  0  0  0
    2.2189    0.4059    0.0000 N   0  0  0  0  0  0  0  0  0  0  0  0
    2.4713    1.1935    0.0000 C   0  0  0  0  0  0  0  0  0  0  0  0
    3.2795    1.3686    0.0000 C   0  0  0  0  0  0  0  0  0  0  0  0
    3.5319    2.1562    0.0000 C   0  0  0  0  0  0  0  0  0  0  0  0
    4.3402    2.3313    0.0000 C   0  0  0  0  0  0  0  0  0  0  0  0
    4.8960    1.7190    0.0000 C   0  0  0  0  0  0  0  0  0  0  0  0
    4.6436    0.9314    0.0000 C   0  0  0  0  0  0  0  0  0  0  0  0
    5.1994    0.3191    0.0000 Cl  0  0  0  0  0  0  0  0  0  0  0  0
    3.8353    0.7563    0.0000 C   0  0  0  0  0  0  0  0  0  0  0  0
    3.5829   -0.0313    0.0000 F   0  0  0  0  0  0  0  0  0  0  0  0
  1  2  1  0  0  0
  2  3  2  0  0  0
  2  4  1  0  0  0
  4  9  1  0  0  0
  4  5  2  0  0  0
  5  6  1  0  0  0
  6  7  2  0  0  0
  7  8  1  0  0  0
  8 12  1  0  0  0
  8  9  2  0  0  0
  9 10  1  0  0  0
 10 11  2  0  0  0
 11 12  1  0  0  0
 12 13  1  0  0  0
 13 14  1  0  0  0
 14 20  1  0  0  0
 14 15  2  0  0  0
 15 16  1  0  0  0
 16 17  2  0  0  0
 17 18  1  0  0  0
 18 19  1  0  0  0
 18 20  2  0  0  0
 20 21  1  0  0  0
M  END
>  <Entry>
268

>  <title>
15-9580

>  <rigid docking scores>
-16.3059

>  <InChIKey>
PCQKTJMRHJBMLF-UHFFFAOYSA-N

$$$$
atoms 20 bonds 22
dotmatics
mol io
 20 22  0  0  0  0  0  0  0  0999 V2000
   -3.5439    1.4324    0.0000 C   0  0  0  0  0  0  0  0  0  0  0  0
   -3.1304    0.7162    0.0000 C   0  0  0  0  0  0  0  0  0  0  0  0
   -3.5439    0.0000    0.0000 C   0  0  0  0  0  0  0  0  0  0  0  0
   -2.3034    0.7162    0.0000 N   0  0  0  0  0  0  0  0  0  0  0  0
   -1.8899    1.4324    0.0000 C   0  0  0  0  0  0  0  0  0  0  0  0
   -1.0629    1.4324    0.0000 C   0  0  0  0  0  0  0  0  0  0  0  0
   -0.6494    0.7162    0.0000 C   0  0  0  0  0  0  0  0  0  0  0  0
    0.1776    0.7162    0.0000 C   0  0  0  0  0  0  0  0  0  0  0  0
    0.6637    1.3853    0.0000 N   0  0  0  0  0  0  0  0  0  0  0  0
    1.4503    1.1297    0.0000 C   0  0  0  0  0  0  0  0  0  0  0  0
    2.1193    1.6158    0.0000 C   0  0  0  0  0  0  0  0  0  0  0  0
    2.0329    2.4383    0.0000 C   0  0  0  0  0  0  0  0  0  0  0  0
    2.7019    2.9244    0.0000 C   0  0  0  0  0  0  0  0  0  0  0  0
    3.4574    2.5880    0.0000 C   0  0  0  0  0  0  0  0  0  0  0  0
    3.5439    1.7655    0.0000 N   0  0  0  0  0  0  0  0  0  0  0  0
    2.8748    1.2794    0.0000 C   0  0  0  0  0  0  0  0  0  0  0  0
    1.4503    0.3027    0.0000 N   0  0  0  0  0  0  0  0  0  0  0  0
    0.6637    0.0471    0.0000 O   0  0  0  0  0  0  0  0  0  0  0  0
   -1.0629    0.0000    0.0000 C   0  0  0  0  0  0  0  0  0  0  0  0
   -1.8899    0.0000    0.0000 C   0  0  0  0  0  0  0  0  0  0  0  0
  1  2  1  0  0  0
  2  3  1  0  0  0
  2  4  1  0  0  0
  4 20  1  0  0  0
  4  5  1  0  0  0
  5  6  1  0  0  0
  6  7  1  0  0  0
  7  8  1  0  0  0
  8 18  1  0  0  0
  8  9  2  0  0  0
  9 10  1  0  0  0
 10 11  1  0  0  0
 11 16  1  0  0  0
 11 12  2  0  0  0
 12 13  1  0  0  0
 13 14  2  0  0  0
 14 15  1  0  0  0
 15 16  2  0  0  0
 10 17  2  0  0  0
 17 18  1  0  0  0
  7 19  1  0  0  0
 19 20  1  0  0  0
M  END
>  <Entry>
269

>  <title>
15-9602

>  <rigid docking scores>
-16.5952

>  <InChIKey>
DHHOBWVCALKXPY-UHFFFAOYSA-N

$$$$
atoms 22 bonds 24
dotmatics
mol io
 22 24  0  0  0  0  0  0  0  0999 V2000
   -1.8824    3.3670    0.0000 O   0  0  0  0  0  0  0  0  0  0  0  0
   -1.4689    4.0832    0.0000 C   0  0  0  0  0  0  0  0  0  0  0  0
   -0.6419    4.0832    0.0000 C   0  0  0  0  0  0  0  0  0  0  0  0
   -0.2284    3.3670    0.0000 S   0  0  0  0  0  0  0  0  0  0  0  0
    0.5986    3.3670    0.0000 C   0  0  0  0  0  0  0  0  0  0  0  0
    1.0847    4.0361    0.0000 N   0  0  0  0  0  0  0  0  0  0  0  0
    1.8712    3.7805    0.0000 N   0  0  0  0  0  0  0  0  0  0  0  0
    1.8712    2.9535    0.0000 C   0  0  0  0  0  0  0  0  0  0  0  0
    2.5403    2.4674    0.0000 N   0  0  0  0  0  0  0  0  0  0  0  0
    2.4538    1.6449    0.0000 C   0  0  0  0  0  0  0  0  0  0  0  0
    3.1229    1.1588    0.0000 C   0  0  0  0  0  0  0  0  0  0  0  0
    3.0365    0.3364    0.0000 C   0  0  0  0  0  0  0  0  0  0  0  0
    2.2809   -0.0000    0.0000 C   0  0  0  0  0  0  0  0  0  0  0  0
    1.6119    0.4861    0.0000 C   0  0  0  0  0  0  0  0  0  0  0  0
    1.6983    1.3086    0.0000 C   0  0  0  0  0  0  0  0  0  0  0  0
    1.0847    2.6980    0.0000 S   0  0  0  0  0  0  0  0  0  0  0  0
   -1.8824    4.7994    0.0000 N   0  0  0  0  0  0  0  0  0  0  0  0
   -2.7094    4.7994    0.0000 C   0  0  0  0  0  0  0  0  0  0  0  0
   -3.1229    5.5156    0.0000 C   0  0  0  0  0  0  0  0  0  0  0  0
   -2.7094    6.2318    0.0000 O   0  0  0  0  0  0  0  0  0  0  0  0
   -1.8824    6.2318    0.0000 C   0  0  0  0  0  0  0  0  0  0  0  0
   -1.4689    5.5156    0.0000 C   0  0  0  0  0  0  0  0  0  0  0  0
  1  2  2  0  0  0
  2  3  1  0  0  0
  3  4  1  0  0  0
  4  5  1  0  0  0
  5 16  1  0  0  0
  5  6  2  0  0  0
  6  7  1  0  0  0
  7  8  2  0  0  0
  8  9  1  0  0  0
  9 10  1  0  0  0
 10 15  1  0  0  0
 10 11  2  0  0  0
 11 12  1  0  0  0
 12 13  2  0  0  0
 13 14  1  0  0  0
 14 15  2  0  0  0
  8 16  1  0  0  0
  2 17  1  0  0  0
 17 22  1  0  0  0
 17 18  1  0  0  0
 18 19  1  0  0  0
 19 20  1  0  0  0
 20 21  1  0  0  0
 21 22  1  0  0  0
M  END
>  <Entry>
270

>  <title>
16-181

>  <rigid docking scores>
-16.0978

>  <InChIKey>
ZRKVZCYFUGPEPG-UHFFFAOYSA-N

>  <ZINC>
ZINC000002638825

>  <eMolecules>
3258262

>  <Pubchem>
2101680

>  <Mcule>
MCULE-2840747197

>  <MolPort>
MolPort-004-049-677

$$$$
atoms 20 bonds 21
dotmatics
mol io
 20 21  0  0  0  0  0  0  0  0999 V2000
    0.8270    2.1486    0.0000 O   0  0  0  0  0  0  0  0  0  0  0  0
    0.4135    1.4324    0.0000 C   0  0  0  0  0  0  0  0  0  0  0  0
    0.8270    0.7162    0.0000 C   0  0  0  0  0  0  0  0  0  0  0  0
    1.6540    0.7162    0.0000 C   0  0  0  0  0  0  0  0  0  0  0  0
    2.0675    1.4324    0.0000 C   0  0  0  0  0  0  0  0  0  0  0  0
    2.8945    1.4324    0.0000 C   0  0  0  0  0  0  0  0  0  0  0  0
    3.3080    0.7162    0.0000 C   0  0  0  0  0  0  0  0  0  0  0  0
    4.1350    0.7162    0.0000 Cl  0  0  0  0  0  0  0  0  0  0  0  0
    2.8945   -0.0000    0.0000 C   0  0  0  0  0  0  0  0  0  0  0  0
    2.0675   -0.0000    0.0000 C   0  0  0  0  0  0  0  0  0  0  0  0
   -0.4135    1.4324    0.0000 N   0  0  0  0  0  0  0  0  0  0  0  0
   -0.8270    2.1486    0.0000 C   0  0  0  0  0  0  0  0  0  0  0  0
   -1.6540    2.1486    0.0000 C   0  0  0  0  0  0  0  0  0  0  0  0
   -2.0675    1.4324    0.0000 C   0  0  0  0  0  0  0  0  0  0  0  0
   -2.8945    1.4324    0.0000 C   0  0  0  0  0  0  0  0  0  0  0  0
   -3.3080    0.7162    0.0000 O   0  0  0  0  0  0  0  0  0  0  0  0
   -3.3080    2.1486    0.0000 C   0  0  0  0  0  0  0  0  0  0  0  0
   -4.1350    2.1486    0.0000 O   0  0  0  0  0  0  0  0  0  0  0  0
   -2.8945    2.8648    0.0000 C   0  0  0  0  0  0  0  0  0  0  0  0
   -2.0675    2.8648    0.0000 N   0  0  0  0  0  0  0  0  0  0  0  0
  1  2  2  0  0  0
  2  3  1  0  0  0
  3  4  1  0  0  0
  4 10  1  0  0  0
  4  5  2  0  0  0
  5  6  1  0  0  0
  6  7  2  0  0  0
  7  8  1  0  0  0
  7  9  1  0  0  0
  9 10  2  0  0  0
  2 11  1  0  0  0
 11 12  1  0  0  0
 12 13  1  0  0  0
 13 20  1  0  0  0
 13 14  2  0  0  0
 14 15  1  0  0  0
 15 16  2  0  0  0
 15 17  1  0  0  0
 17 18  1  0  0  0
 17 19  2  0  0  0
 19 20  1  0  0  0
M  END
>  <Entry>
271

>  <title>
16-223

>  <rigid docking scores>
-15.39

>  <InChIKey>
FWPQUZLEKXVGQB-UHFFFAOYSA-N

$$$$
atoms 20 bonds 22
dotmatics
mol io
 20 22  0  0  0  0  0  0  0  0999 V2000
    5.5081    0.2200    0.0000 C   0  0  0  0  0  0  0  0  0  0  0  0
    5.5081   -0.6070    0.0000 C   0  0  0  0  0  0  0  0  0  0  0  0
    6.2243   -1.0205    0.0000 C   0  0  0  0  0  0  0  0  0  0  0  0
    6.2243   -1.8475    0.0000 C   0  0  0  0  0  0  0  0  0  0  0  0
    5.5081   -2.2610    0.0000 C   0  0  0  0  0  0  0  0  0  0  0  0
    4.7919   -1.8475    0.0000 C   0  0  0  0  0  0  0  0  0  0  0  0
    4.7919   -1.0205    0.0000 C   0  0  0  0  0  0  0  0  0  0  0  0
    4.0757   -0.6070    0.0000 C   0  0  0  0  0  0  0  0  0  0  0  0
    3.3202   -0.9434    0.0000 N   0  0  0  0  0  0  0  0  0  0  0  0
    2.7669   -0.3288    0.0000 C   0  0  0  0  0  0  0  0  0  0  0  0
    1.9444   -0.4152    0.0000 C   0  0  0  0  0  0  0  0  0  0  0  0
    1.4583    0.2538    0.0000 N   0  0  0  0  0  0  0  0  0  0  0  0
    0.6358    0.1674    0.0000 C   0  0  0  0  0  0  0  0  0  0  0  0
    0.1497    0.8364    0.0000 C   0  0  0  0  0  0  0  0  0  0  0  0
    0.4861    1.5919    0.0000 N   0  0  0  0  0  0  0  0  0  0  0  0
    0.0000    2.2610    0.0000 C   0  0  0  0  0  0  0  0  0  0  0  0
    1.3086    1.6784    0.0000 C   0  0  0  0  0  0  0  0  0  0  0  0
    1.7947    1.0093    0.0000 C   0  0  0  0  0  0  0  0  0  0  0  0
    3.1804    0.3874    0.0000 C   0  0  0  0  0  0  0  0  0  0  0  0
    3.9893    0.2155    0.0000 O   0  0  0  0  0  0  0  0  0  0  0  0
  1  2  1  0  0  0
  2  7  1  0  0  0
  2  3  2  0  0  0
  3  4  1  0  0  0
  4  5  2  0  0  0
  5  6  1  0  0  0
  6  7  2  0  0  0
  7  8  1  0  0  0
  8 20  1  0  0  0
  8  9  2  0  0  0
  9 10  1  0  0  0
 10 11  1  0  0  0
 11 12  1  0  0  0
 12 18  1  0  0  0
 12 13  1  0  0  0
 13 14  1  0  0  0
 14 15  1  0  0  0
 15 16  1  0  0  0
 15 17  1  0  0  0
 17 18  1  0  0  0
 10 19  2  0  0  0
 19 20  1  0  0  0
M  END
>  <Entry>
272

>  <title>
16-772

>  <rigid docking scores>
-16.1641

>  <InChIKey>
LAZLDDCFGLZADA-UHFFFAOYSA-N

>  <ChEMBL>
CHEMBL1862556

>  <ZINC>
ZINC000072139948

>  <Pubchem>
56662402

$$$$
atoms 21 bonds 23
dotmatics
mol io
 21 23  0  0  0  0  0  0  0  0999 V2000
    0.0000   -2.4822    0.0000 O   0  0  0  0  0  0  0  0  0  0  0  0
    0.7162   -2.0687    0.0000 C   0  0  0  0  0  0  0  0  0  0  0  0
    1.4324   -2.4822    0.0000 C   0  0  0  0  0  0  0  0  0  0  0  0
    2.1486   -2.0687    0.0000 N   0  0  0  0  0  0  0  0  0  0  0  0
    2.1486   -1.2417    0.0000 C   0  0  0  0  0  0  0  0  0  0  0  0
    2.8648   -0.8282    0.0000 C   0  0  0  0  0  0  0  0  0  0  0  0
    3.5810   -1.2417    0.0000 N   0  0  0  0  0  0  0  0  0  0  0  0
    4.2972   -0.8282    0.0000 C   0  0  0  0  0  0  0  0  0  0  0  0
    4.2972   -0.0012    0.0000 C   0  0  0  0  0  0  0  0  0  0  0  0
    3.5814    0.4129    0.0000 C   0  0  0  0  0  0  0  0  0  0  0  0
    3.5814    1.2411    0.0000 C   0  0  0  0  0  0  0  0  0  0  0  0
    4.2972    1.6552    0.0000 C   0  0  0  0  0  0  0  0  0  0  0  0
    4.2972    2.4822    0.0000 O   0  0  0  0  0  0  0  0  0  0  0  0
    5.0131    1.2411    0.0000 C   0  0  0  0  0  0  0  0  0  0  0  0
    5.7348    1.6552    0.0000 N   0  0  0  0  0  0  0  0  0  0  0  0
    6.4507    1.2411    0.0000 C   0  0  0  0  0  0  0  0  0  0  0  0
    6.4507    0.4129    0.0000 C   0  0  0  0  0  0  0  0  0  0  0  0
    5.7348   -0.0012    0.0000 C   0  0  0  0  0  0  0  0  0  0  0  0
    5.0131    0.4129    0.0000 C   0  0  0  0  0  0  0  0  0  0  0  0
    3.5810   -2.0687    0.0000 C   0  0  0  0  0  0  0  0  0  0  0  0
    2.8648   -2.4822    0.0000 C   0  0  0  0  0  0  0  0  0  0  0  0
  1  2  1  0  0  0
  2  3  1  0  0  0
  3  4  1  0  0  0
  4 21  1  0  0  0
  4  5  1  0  0  0
  5  6  1  0  0  0
  6  7  1  0  0  0
  7  8  1  0  0  0
  8  9  1  0  0  0
  9 19  1  0  0  0
  9 10  2  0  0  0
 10 11  1  0  0  0
 11 12  2  0  0  0
 12 13  1  0  0  0
 12 14  1  0  0  0
 14 19  1  0  0  0
 14 15  2  0  0  0
 15 16  1  0  0  0
 16 17  2  0  0  0
 17 18  1  0  0  0
 18 19  2  0  0  0
  7 20  1  0  0  0
 20 21  1  0  0  0
M  END
>  <Entry>
273

>  <title>
16-839

>  <rigid docking scores>
-15.9698

>  <InChIKey>
XIXFNVDWEWCEOI-UHFFFAOYSA-N

>  <ZINC>
ZINC000022450566

>  <SureChEMBL Patents>
SCHEMBL113820

>  <Pubchem>
4490594

>  <Mcule>
MCULE-4478939141

>  <MolPort>
MolPort-000-226-711

>  <Japanese Chemicals>
J2.057.922F

$$$$
atoms 21 bonds 23
dotmatics
mol io
 21 23  0  0  0  0  0  0  0  0999 V2000
    2.1856   -3.1050    0.0000 C   0  0  0  0  0  0  0  0  0  0  0  0
    2.1797   -2.2780    0.0000 C   0  0  0  0  0  0  0  0  0  0  0  0
    2.8929   -1.8594    0.0000 C   0  0  0  0  0  0  0  0  0  0  0  0
    3.6121   -2.2678    0.0000 O   0  0  0  0  0  0  0  0  0  0  0  0
    2.8870   -1.0324    0.0000 N   0  0  0  0  0  0  0  0  0  0  0  0
    2.1679   -0.6241    0.0000 C   0  0  0  0  0  0  0  0  0  0  0  0
    2.1620    0.2029    0.0000 C   0  0  0  0  0  0  0  0  0  0  0  0
    2.8752    0.6215    0.0000 N   0  0  0  0  0  0  0  0  0  0  0  0
    2.8693    1.4485    0.0000 C   0  0  0  0  0  0  0  0  0  0  0  0
    3.5851    1.8626    0.0000 C   0  0  0  0  0  0  0  0  0  0  0  0
    3.5851    2.6909    0.0000 C   0  0  0  0  0  0  0  0  0  0  0  0
    2.8693    3.1050    0.0000 N   0  0  0  0  0  0  0  0  0  0  0  0
    2.1475    2.6909    0.0000 C   0  0  0  0  0  0  0  0  0  0  0  0
    1.4317    3.1050    0.0000 C   0  0  0  0  0  0  0  0  0  0  0  0
    0.7158    2.6909    0.0000 C   0  0  0  0  0  0  0  0  0  0  0  0
    0.0000    3.1050    0.0000 Cl  0  0  0  0  0  0  0  0  0  0  0  0
    0.7158    1.8626    0.0000 C   0  0  0  0  0  0  0  0  0  0  0  0
    1.4317    1.4485    0.0000 C   0  0  0  0  0  0  0  0  0  0  0  0
    2.1475    1.8626    0.0000 C   0  0  0  0  0  0  0  0  0  0  0  0
    3.5943    0.2132    0.0000 C   0  0  0  0  0  0  0  0  0  0  0  0
    3.6002   -0.6138    0.0000 C   0  0  0  0  0  0  0  0  0  0  0  0
  1  2  1  0  0  0
  2  3  1  0  0  0
  3  4  2  0  0  0
  3  5  1  0  0  0
  5 21  1  0  0  0
  5  6  1  0  0  0
  6  7  1  0  0  0
  7  8  1  0  0  0
  8  9  1  0  0  0
  9 19  1  0  0  0
  9 10  2  0  0  0
 10 11  1  0  0  0
 11 12  2  0  0  0
 12 13  1  0  0  0
 13 19  1  0  0  0
 13 14  2  0  0  0
 14 15  1  0  0  0
 15 16  1  0  0  0
 15 17  2  0  0  0
 17 18  1  0  0  0
 18 19  2  0  0  0
  8 20  1  0  0  0
 20 21  1  0  0  0
M  END
>  <Entry>
274

>  <title>
16-908

>  <rigid docking scores>
-16.5647

>  <InChIKey>
SMCUMUSHPASMPO-UHFFFAOYSA-N

>  <ChEMBL>
CHEMBL1727358

>  <ZINC>
ZINC000000171642

>  <eMolecules>
5828977

>  <SureChEMBL Patents>
SCHEMBL5579624

>  <Pubchem>
2823727

>  <Mcule>
MCULE-4940555128

>  <MolPort>
MolPort-002-909-372

$$$$
atoms 22 bonds 24
dotmatics
mol io
 22 24  0  0  0  0  0  0  0  0999 V2000
   -0.7433    0.7162    0.0000 O   0  0  0  0  0  0  0  0  0  0  0  0
   -0.3298    1.4324    0.0000 C   0  0  0  0  0  0  0  0  0  0  0  0
    0.4972    1.4324    0.0000 C   0  0  0  0  0  0  0  0  0  0  0  0
    0.9107    2.1486    0.0000 C   0  0  0  0  0  0  0  0  0  0  0  0
    1.7377    2.1486    0.0000 C   0  0  0  0  0  0  0  0  0  0  0  0
    2.1512    2.8648    0.0000 Cl  0  0  0  0  0  0  0  0  0  0  0  0
    2.1512    1.4324    0.0000 C   0  0  0  0  0  0  0  0  0  0  0  0
    2.9782    1.4324    0.0000 O   0  0  0  0  0  0  0  0  0  0  0  0
    1.7377    0.7162    0.0000 C   0  0  0  0  0  0  0  0  0  0  0  0
    0.9107    0.7162    0.0000 C   0  0  0  0  0  0  0  0  0  0  0  0
    0.4972   -0.0000    0.0000 O   0  0  0  0  0  0  0  0  0  0  0  0
   -0.7433    2.1486    0.0000 N   0  0  0  0  0  0  0  0  0  0  0  0
   -1.5703    2.1486    0.0000 C   0  0  0  0  0  0  0  0  0  0  0  0
   -1.9838    2.8648    0.0000 C   0  0  0  0  0  0  0  0  0  0  0  0
   -1.5703    3.5810    0.0000 N   0  0  0  0  0  0  0  0  0  0  0  0
   -1.9838    4.2972    0.0000 C   0  0  0  0  0  0  0  0  0  0  0  0
   -2.8063    4.3837    0.0000 C   0  0  0  0  0  0  0  0  0  0  0  0
   -2.9782    5.1926    0.0000 C   0  0  0  0  0  0  0  0  0  0  0  0
   -2.2620    5.6061    0.0000 C   0  0  0  0  0  0  0  0  0  0  0  0
   -1.6474    5.0527    0.0000 C   0  0  0  0  0  0  0  0  0  0  0  0
   -0.7433    3.5810    0.0000 C   0  0  0  0  0  0  0  0  0  0  0  0
   -0.3298    2.8648    0.0000 C   0  0  0  0  0  0  0  0  0  0  0  0
  1  2  2  0  0  0
  2  3  1  0  0  0
  3 10  1  0  0  0
  3  4  2  0  0  0
  4  5  1  0  0  0
  5  6  1  0  0  0
  5  7  2  0  0  0
  7  8  1  0  0  0
  7  9  1  0  0  0
  9 10  2  0  0  0
 10 11  1  0  0  0
  2 12  1  0  0  0
 12 22  1  0  0  0
 12 13  1  0  0  0
 13 14  1  0  0  0
 14 15  1  0  0  0
 15 16  1  0  0  0
 16 20  1  0  0  0
 16 17  1  0  0  0
 17 18  1  0  0  0
 18 19  1  0  0  0
 19 20  1  0  0  0
 15 21  1  0  0  0
 21 22  1  0  0  0
M  END
>  <Entry>
275

>  <title>
16-978

>  <rigid docking scores>
-17.8797

>  <InChIKey>
WCMGVXXTEJURFW-UHFFFAOYSA-N

$$$$
atoms 20 bonds 22
dotmatics
mol io
 20 22  0  0  0  0  0  0  0  0999 V2000
    5.2087    2.5647    0.0000 C   0  0  0  0  0  0  0  0  0  0  0  0
    4.4925    2.1512    0.0000 C   0  0  0  0  0  0  0  0  0  0  0  0
    4.4925    1.3242    0.0000 N   0  0  0  0  0  0  0  0  0  0  0  0
    5.2087    0.9107    0.0000 C   0  0  0  0  0  0  0  0  0  0  0  0
    5.2087    0.0837    0.0000 C   0  0  0  0  0  0  0  0  0  0  0  0
    4.4925   -0.3298    0.0000 N   0  0  0  0  0  0  0  0  0  0  0  0
    4.4925   -1.1568    0.0000 C   0  0  0  0  0  0  0  0  0  0  0  0
    3.7763   -1.5703    0.0000 C   0  0  0  0  0  0  0  0  0  0  0  0
    3.6898   -2.3928    0.0000 C   0  0  0  0  0  0  0  0  0  0  0  0
    2.8809   -2.5647    0.0000 O   0  0  0  0  0  0  0  0  0  0  0  0
    2.4674   -1.8485    0.0000 C   0  0  0  0  0  0  0  0  0  0  0  0
    1.6449   -1.7621    0.0000 C   0  0  0  0  0  0  0  0  0  0  0  0
    1.1588   -2.4311    0.0000 C   0  0  0  0  0  0  0  0  0  0  0  0
    0.3364   -2.3447    0.0000 C   0  0  0  0  0  0  0  0  0  0  0  0
    0.0000   -1.5892    0.0000 C   0  0  0  0  0  0  0  0  0  0  0  0
    0.4861   -0.9201    0.0000 C   0  0  0  0  0  0  0  0  0  0  0  0
    1.3086   -1.0066    0.0000 C   0  0  0  0  0  0  0  0  0  0  0  0
    3.0208   -1.2339    0.0000 N   0  0  0  0  0  0  0  0  0  0  0  0
    3.7763    0.0837    0.0000 C   0  0  0  0  0  0  0  0  0  0  0  0
    3.7763    0.9107    0.0000 C   0  0  0  0  0  0  0  0  0  0  0  0
  1  2  1  0  0  0
  2  3  1  0  0  0
  3 20  1  0  0  0
  3  4  1  0  0  0
  4  5  1  0  0  0
  5  6  1  0  0  0
  6  7  1  0  0  0
  7  8  1  0  0  0
  8 18  1  0  0  0
  8  9  2  0  0  0
  9 10  1  0  0  0
 10 11  1  0  0  0
 11 12  1  0  0  0
 12 17  1  0  0  0
 12 13  2  0  0  0
 13 14  1  0  0  0
 14 15  2  0  0  0
 15 16  1  0  0  0
 16 17  2  0  0  0
 11 18  2  0  0  0
  6 19  1  0  0  0
 19 20  1  0  0  0
M  END
>  <Entry>
276

>  <title>
16-1094

>  <rigid docking scores>
-16.1971

>  <InChIKey>
MENVPKIXRGQDLT-UHFFFAOYSA-N

>  <Pubchem>
133729962

$$$$
atoms 20 bonds 22
dotmatics
mol io
 20 22  0  0  0  0  0  0  0  0999 V2000
    6.0176   -2.5627    0.0000 C   0  0  0  0  0  0  0  0  0  0  0  0
    6.4311   -1.8465    0.0000 C   0  0  0  0  0  0  0  0  0  0  0  0
    6.0176   -1.1303    0.0000 N   0  0  0  0  0  0  0  0  0  0  0  0
    5.1906   -1.1303    0.0000 C   0  0  0  0  0  0  0  0  0  0  0  0
    4.7771   -0.4141    0.0000 C   0  0  0  0  0  0  0  0  0  0  0  0
    5.1906    0.3021    0.0000 N   0  0  0  0  0  0  0  0  0  0  0  0
    4.7771    1.0183    0.0000 C   0  0  0  0  0  0  0  0  0  0  0  0
    3.9501    1.0183    0.0000 C   0  0  0  0  0  0  0  0  0  0  0  0
    3.5366    1.7345    0.0000 C   0  0  0  0  0  0  0  0  0  0  0  0
    2.7096    1.7345    0.0000 C   0  0  0  0  0  0  0  0  0  0  0  0
    2.2185    1.0660    0.0000 N   0  0  0  0  0  0  0  0  0  0  0  0
    1.4317    1.3204    0.0000 C   0  0  0  0  0  0  0  0  0  0  0  0
    0.7158    0.9062    0.0000 C   0  0  0  0  0  0  0  0  0  0  0  0
    0.0000    1.3204    0.0000 C   0  0  0  0  0  0  0  0  0  0  0  0
    0.0000    2.1486    0.0000 C   0  0  0  0  0  0  0  0  0  0  0  0
    0.7158    2.5627    0.0000 C   0  0  0  0  0  0  0  0  0  0  0  0
    1.4317    2.1486    0.0000 C   0  0  0  0  0  0  0  0  0  0  0  0
    2.2185    2.4030    0.0000 N   0  0  0  0  0  0  0  0  0  0  0  0
    6.0176    0.3021    0.0000 C   0  0  0  0  0  0  0  0  0  0  0  0
    6.4311   -0.4141    0.0000 C   0  0  0  0  0  0  0  0  0  0  0  0
  1  2  1  0  0  0
  2  3  1  0  0  0
  3 20  1  0  0  0
  3  4  1  0  0  0
  4  5  1  0  0  0
  5  6  1  0  0  0
  6  7  1  0  0  0
  7  8  1  0  0  0
  8  9  1  0  0  0
  9 10  1  0  0  0
 10 18  1  0  0  0
 10 11  2  0  0  0
 11 12  1  0  0  0
 12 17  1  0  0  0
 12 13  2  0  0  0
 13 14  1  0  0  0
 14 15  2  0  0  0
 15 16  1  0  0  0
 16 17  2  0  0  0
 17 18  1  0  0  0
  6 19  1  0  0  0
 19 20  1  0  0  0
M  END
>  <Entry>
277

>  <title>
16-1105

>  <rigid docking scores>
-15.3789

>  <InChIKey>
OIRUKLYHMLSEIK-UHFFFAOYSA-N

$$$$
atoms 21 bonds 23
dotmatics
mol io
 21 23  0  0  0  0  0  0  0  0999 V2000
    3.5917   -0.6416    0.0000 O   0  0  0  0  0  0  0  0  0  0  0  0
    2.8785   -0.2230    0.0000 C   0  0  0  0  0  0  0  0  0  0  0  0
    2.1594   -0.6314    0.0000 C   0  0  0  0  0  0  0  0  0  0  0  0
    2.1534   -1.4584    0.0000 N   0  0  0  0  0  0  0  0  0  0  0  0
    2.8693   -1.8725    0.0000 C   0  0  0  0  0  0  0  0  0  0  0  0
    3.5851   -1.4584    0.0000 O   0  0  0  0  0  0  0  0  0  0  0  0
    2.8693   -2.7007    0.0000 C   0  0  0  0  0  0  0  0  0  0  0  0
    2.1534   -3.1149    0.0000 O   0  0  0  0  0  0  0  0  0  0  0  0
    1.4317   -2.7007    0.0000 C   0  0  0  0  0  0  0  0  0  0  0  0
    0.7158   -3.1149    0.0000 C   0  0  0  0  0  0  0  0  0  0  0  0
    0.0000   -2.7007    0.0000 C   0  0  0  0  0  0  0  0  0  0  0  0
    0.0000   -1.8725    0.0000 C   0  0  0  0  0  0  0  0  0  0  0  0
    0.7158   -1.4584    0.0000 C   0  0  0  0  0  0  0  0  0  0  0  0
    1.4317   -1.8725    0.0000 C   0  0  0  0  0  0  0  0  0  0  0  0
    2.8844    0.6040    0.0000 N   0  0  0  0  0  0  0  0  0  0  0  0
    3.6035    1.0123    0.0000 C   0  0  0  0  0  0  0  0  0  0  0  0
    3.6094    1.8393    0.0000 C   0  0  0  0  0  0  0  0  0  0  0  0
    2.9439    2.3302    0.0000 C   0  0  0  0  0  0  0  0  0  0  0  0
    3.2050    3.1149    0.0000 C   0  0  0  0  0  0  0  0  0  0  0  0
    4.0320    3.1090    0.0000 C   0  0  0  0  0  0  0  0  0  0  0  0
    4.2820    2.3206    0.0000 S   0  0  0  0  0  0  0  0  0  0  0  0
  1  2  2  0  0  0
  2  3  1  0  0  0
  3  4  1  0  0  0
  4 14  1  0  0  0
  4  5  1  0  0  0
  5  6  2  0  0  0
  5  7  1  0  0  0
  7  8  1  0  0  0
  8  9  1  0  0  0
  9 14  1  0  0  0
  9 10  2  0  0  0
 10 11  1  0  0  0
 11 12  2  0  0  0
 12 13  1  0  0  0
 13 14  2  0  0  0
  2 15  1  0  0  0
 15 16  1  0  0  0
 16 17  1  0  0  0
 17 21  1  0  0  0
 17 18  2  0  0  0
 18 19  1  0  0  0
 19 20  2  0  0  0
 20 21  1  0  0  0
M  END
>  <Entry>
278

>  <title>
16-1634

>  <rigid docking scores>
-16.0108

>  <InChIKey>
USWMKWFXMVFVSJ-UHFFFAOYSA-N

>  <ZINC>
ZINC000000219490

>  <eMolecules>
24443320

>  <Pubchem>
758024

>  <Mcule>
MCULE-9347230780

$$$$
atoms 21 bonds 23
dotmatics
mol io
 21 23  0  0  0  0  0  0  0  0999 V2000
    0.7843    2.1486    0.0000 O   0  0  0  0  0  0  0  0  0  0  0  0
    0.3708    1.4324    0.0000 C   0  0  0  0  0  0  0  0  0  0  0  0
    0.7843    0.7162    0.0000 C   0  0  0  0  0  0  0  0  0  0  0  0
    1.6113    0.7162    0.0000 N   0  0  0  0  0  0  0  0  0  0  0  0
    2.0248    1.4324    0.0000 C   0  0  0  0  0  0  0  0  0  0  0  0
    2.8518    1.4324    0.0000 C   0  0  0  0  0  0  0  0  0  0  0  0
    3.2653    0.7162    0.0000 O   0  0  0  0  0  0  0  0  0  0  0  0
    2.8518    0.0000    0.0000 C   0  0  0  0  0  0  0  0  0  0  0  0
    2.0248   -0.0000    0.0000 C   0  0  0  0  0  0  0  0  0  0  0  0
   -0.4562    1.4324    0.0000 N   0  0  0  0  0  0  0  0  0  0  0  0
   -0.8697    2.1486    0.0000 C   0  0  0  0  0  0  0  0  0  0  0  0
   -0.5334    2.9041    0.0000 N   0  0  0  0  0  0  0  0  0  0  0  0
   -1.1480    3.4575    0.0000 S   0  0  0  0  0  0  0  0  0  0  0  0
   -0.6619    4.1265    0.0000 O   0  0  0  0  0  0  0  0  0  0  0  0
   -1.4843    4.2130    0.0000 O   0  0  0  0  0  0  0  0  0  0  0  0
   -1.8642    3.0440    0.0000 C   0  0  0  0  0  0  0  0  0  0  0  0
   -2.6507    3.2995    0.0000 C   0  0  0  0  0  0  0  0  0  0  0  0
   -3.2653    2.7462    0.0000 C   0  0  0  0  0  0  0  0  0  0  0  0
   -3.0933    1.9372    0.0000 C   0  0  0  0  0  0  0  0  0  0  0  0
   -2.3068    1.6817    0.0000 C   0  0  0  0  0  0  0  0  0  0  0  0
   -1.6922    2.2351    0.0000 C   0  0  0  0  0  0  0  0  0  0  0  0
  1  2  2  0  0  0
  2  3  1  0  0  0
  3  4  1  0  0  0
  4  9  1  0  0  0
  4  5  1  0  0  0
  5  6  1  0  0  0
  6  7  1  0  0  0
  7  8  1  0  0  0
  8  9  1  0  0  0
  2 10  1  0  0  0
 10 11  1  0  0  0
 11 21  1  0  0  0
 11 12  2  0  0  0
 12 13  1  0  0  0
 13 14  2  0  0  0
 13 15  2  0  0  0
 13 16  1  0  0  0
 16 21  1  0  0  0
 16 17  2  0  0  0
 17 18  1  0  0  0
 18 19  2  0  0  0
 19 20  1  0  0  0
 20 21  2  0  0  0
M  END
>  <Entry>
279

>  <title>
16-2100

>  <rigid docking scores>
-20.3476

>  <InChIKey>
OYHDGQWYSPAKTD-UHFFFAOYSA-N

$$$$
atoms 21 bonds 23
dotmatics
mol io
 21 23  0  0  0  0  0  0  0  0999 V2000
   -3.3218    2.7476    0.0000 C   0  0  0  0  0  0  0  0  0  0  0  0
   -2.4948    2.7476    0.0000 C   0  0  0  0  0  0  0  0  0  0  0  0
   -2.0813    3.4638    0.0000 C   0  0  0  0  0  0  0  0  0  0  0  0
   -1.2543    3.4638    0.0000 C   0  0  0  0  0  0  0  0  0  0  0  0
   -0.8408    2.7476    0.0000 C   0  0  0  0  0  0  0  0  0  0  0  0
   -0.0138    2.7476    0.0000 C   0  0  0  0  0  0  0  0  0  0  0  0
    0.3997    3.4638    0.0000 O   0  0  0  0  0  0  0  0  0  0  0  0
    0.3997    2.0314    0.0000 N   0  0  0  0  0  0  0  0  0  0  0  0
    1.2267    2.0314    0.0000 C   0  0  0  0  0  0  0  0  0  0  0  0
    1.7128    2.7004    0.0000 N   0  0  0  0  0  0  0  0  0  0  0  0
    2.4993    2.4449    0.0000 S   0  0  0  0  0  0  0  0  0  0  0  0
    2.8357    3.2004    0.0000 O   0  0  0  0  0  0  0  0  0  0  0  0
    3.3218    2.5313    0.0000 O   0  0  0  0  0  0  0  0  0  0  0  0
    2.4993    1.6179    0.0000 C   0  0  0  0  0  0  0  0  0  0  0  0
    3.1139    1.0645    0.0000 C   0  0  0  0  0  0  0  0  0  0  0  0
    2.9420    0.2556    0.0000 C   0  0  0  0  0  0  0  0  0  0  0  0
    2.1554   -0.0000    0.0000 C   0  0  0  0  0  0  0  0  0  0  0  0
    1.5409    0.5534    0.0000 C   0  0  0  0  0  0  0  0  0  0  0  0
    1.7128    1.3623    0.0000 C   0  0  0  0  0  0  0  0  0  0  0  0
   -1.2543    2.0314    0.0000 C   0  0  0  0  0  0  0  0  0  0  0  0
   -2.0813    2.0314    0.0000 C   0  0  0  0  0  0  0  0  0  0  0  0
  1  2  1  0  0  0
  2 21  1  0  0  0
  2  3  2  0  0  0
  3  4  1  0  0  0
  4  5  2  0  0  0
  5  6  1  0  0  0
  6  7  2  0  0  0
  6  8  1  0  0  0
  8  9  1  0  0  0
  9 19  1  0  0  0
  9 10  2  0  0  0
 10 11  1  0  0  0
 11 12  2  0  0  0
 11 13  2  0  0  0
 11 14  1  0  0  0
 14 19  1  0  0  0
 14 15  2  0  0  0
 15 16  1  0  0  0
 16 17  2  0  0  0
 17 18  1  0  0  0
 18 19  2  0  0  0
  5 20  1  0  0  0
 20 21  2  0  0  0
M  END
>  <Entry>
280

>  <title>
16-2105

>  <rigid docking scores>
-22.1341

>  <InChIKey>
VWKVQLHXDYMAGH-UHFFFAOYSA-N

$$$$
atoms 21 bonds 23
dotmatics
mol io
 21 23  0  0  0  0  0  0  0  0999 V2000
    4.1412    2.5065    0.0000 O   0  0  0  0  0  0  0  0  0  0  0  0
    3.7271    1.7907    0.0000 C   0  0  0  0  0  0  0  0  0  0  0  0
    4.1412    1.0748    0.0000 C   0  0  0  0  0  0  0  0  0  0  0  0
    3.7271    0.3590    0.0000 C   0  0  0  0  0  0  0  0  0  0  0  0
    4.1412   -0.3568    0.0000 C   0  0  0  0  0  0  0  0  0  0  0  0
    3.7284   -1.0734    0.0000 N   0  0  0  0  0  0  0  0  0  0  0  0
    4.1425   -1.7892    0.0000 C   0  0  0  0  0  0  0  0  0  0  0  0
    3.7296   -2.5058    0.0000 C   0  0  0  0  0  0  0  0  0  0  0  0
    2.9026   -2.5065    0.0000 C   0  0  0  0  0  0  0  0  0  0  0  0
    2.4885   -1.7907    0.0000 C   0  0  0  0  0  0  0  0  0  0  0  0
    1.6615   -1.7914    0.0000 O   0  0  0  0  0  0  0  0  0  0  0  0
    2.9014   -1.0741    0.0000 C   0  0  0  0  0  0  0  0  0  0  0  0
    2.8989    0.3590    0.0000 N   0  0  0  0  0  0  0  0  0  0  0  0
    2.4847    1.0748    0.0000 C   0  0  0  0  0  0  0  0  0  0  0  0
    1.6565    1.0748    0.0000 C   0  0  0  0  0  0  0  0  0  0  0  0
    1.2424    0.3590    0.0000 C   0  0  0  0  0  0  0  0  0  0  0  0
    0.4141    0.3590    0.0000 C   0  0  0  0  0  0  0  0  0  0  0  0
    0.0000    1.0748    0.0000 C   0  0  0  0  0  0  0  0  0  0  0  0
    0.4141    1.7907    0.0000 C   0  0  0  0  0  0  0  0  0  0  0  0
    1.2424    1.7907    0.0000 N   0  0  0  0  0  0  0  0  0  0  0  0
    2.8989    1.7907    0.0000 N   0  0  0  0  0  0  0  0  0  0  0  0
  1  2  2  0  0  0
  2 21  1  0  0  0
  2  3  1  0  0  0
  3  4  2  0  0  0
  4  5  1  0  0  0
  5  6  1  0  0  0
  6 12  1  0  0  0
  6  7  1  0  0  0
  7  8  1  0  0  0
  8  9  1  0  0  0
  9 10  1  0  0  0
 10 11  1  0  0  0
 10 12  1  0  0  0
  4 13  1  0  0  0
 13 14  2  0  0  0
 14 15  1  0  0  0
 15 20  1  0  0  0
 15 16  2  0  0  0
 16 17  1  0  0  0
 17 18  2  0  0  0
 18 19  1  0  0  0
 19 20  2  0  0  0
 14 21  1  0  0  0
M  END
>  <Entry>
281

>  <title>
16-2800

>  <rigid docking scores>
-18.6128

>  <InChIKey>
UUJMZERPTKCZMS-UHFFFAOYSA-N

$$$$
atoms 23 bonds 26
dotmatics
mol io
 23 26  0  0  0  0  0  0  0  0999 V2000
    2.8641   -2.1246    0.0000 O   0  0  0  0  0  0  0  0  0  0  0  0
    2.8641   -1.2976    0.0000 C   0  0  0  0  0  0  0  0  0  0  0  0
    2.1482   -0.8835    0.0000 N   0  0  0  0  0  0  0  0  0  0  0  0
    2.1482   -0.0552    0.0000 C   0  0  0  0  0  0  0  0  0  0  0  0
    1.4324    0.3589    0.0000 C   0  0  0  0  0  0  0  0  0  0  0  0
    0.7158   -0.0540    0.0000 C   0  0  0  0  0  0  0  0  0  0  0  0
    0.0000    0.3602    0.0000 C   0  0  0  0  0  0  0  0  0  0  0  0
    0.0007    1.1872    0.0000 C   0  0  0  0  0  0  0  0  0  0  0  0
    0.7173    1.6000    0.0000 N   0  0  0  0  0  0  0  0  0  0  0  0
    1.4331    1.1859    0.0000 C   0  0  0  0  0  0  0  0  0  0  0  0
    2.8641    0.3589    0.0000 N   0  0  0  0  0  0  0  0  0  0  0  0
    3.5799   -0.0552    0.0000 C   0  0  0  0  0  0  0  0  0  0  0  0
    3.5799   -0.8835    0.0000 C   0  0  0  0  0  0  0  0  0  0  0  0
    4.3668   -1.1379    0.0000 C   0  0  0  0  0  0  0  0  0  0  0  0
    4.8578   -0.4693    0.0000 N   0  0  0  0  0  0  0  0  0  0  0  0
    4.3668    0.1992    0.0000 N   0  0  0  0  0  0  0  0  0  0  0  0
    4.6192    0.9867    0.0000 C   0  0  0  0  0  0  0  0  0  0  0  0
    5.4274    1.1619    0.0000 C   0  0  0  0  0  0  0  0  0  0  0  0
    5.6798    1.9494    0.0000 C   0  0  0  0  0  0  0  0  0  0  0  0
    6.4881    2.1246    0.0000 C   0  0  0  0  0  0  0  0  0  0  0  0
    7.0439    1.5122    0.0000 C   0  0  0  0  0  0  0  0  0  0  0  0
    6.7915    0.7247    0.0000 C   0  0  0  0  0  0  0  0  0  0  0  0
    5.9832    0.5495    0.0000 C   0  0  0  0  0  0  0  0  0  0  0  0
  1  2  2  0  0  0
  2 13  1  0  0  0
  2  3  1  0  0  0
  3  4  1  0  0  0
  4  5  1  0  0  0
  5 10  1  0  0  0
  5  6  2  0  0  0
  6  7  1  0  0  0
  7  8  2  0  0  0
  8  9  1  0  0  0
  9 10  2  0  0  0
  4 11  2  0  0  0
 11 12  1  0  0  0
 12 16  1  0  0  0
 12 13  2  0  0  0
 13 14  1  0  0  0
 14 15  2  0  0  0
 15 16  1  0  0  0
 16 17  1  0  0  0
 17 18  1  0  0  0
 18 23  1  0  0  0
 18 19  1  0  0  0
 19 20  1  0  0  0
 20 21  1  0  0  0
 21 22  1  0  0  0
 22 23  1  0  0  0
M  END
>  <Entry>
282

>  <title>
16-2878

>  <rigid docking scores>
-18.8001

>  <InChIKey>
CYITXSVXIIFAOU-UHFFFAOYSA-N

$$$$
atoms 23 bonds 25
dotmatics
mol io
 23 25  0  0  0  0  0  0  0  0999 V2000
    7.8845   -1.2399    0.0000 N   0  0  0  0  0  0  0  0  0  0  0  0
    7.8838   -0.4129    0.0000 C   0  0  0  0  0  0  0  0  0  0  0  0
    8.5996    0.0012    0.0000 O   0  0  0  0  0  0  0  0  0  0  0  0
    7.1672    0.0000    0.0000 C   0  0  0  0  0  0  0  0  0  0  0  0
    6.4514   -0.4141    0.0000 C   0  0  0  0  0  0  0  0  0  0  0  0
    5.7348   -0.0012    0.0000 C   0  0  0  0  0  0  0  0  0  0  0  0
    5.7341    0.8258    0.0000 C   0  0  0  0  0  0  0  0  0  0  0  0
    5.0175    1.2386    0.0000 N   0  0  0  0  0  0  0  0  0  0  0  0
    4.3017    0.8245    0.0000 C   0  0  0  0  0  0  0  0  0  0  0  0
    4.3024   -0.0025    0.0000 O   0  0  0  0  0  0  0  0  0  0  0  0
    3.5851    1.2374    0.0000 N   0  0  0  0  0  0  0  0  0  0  0  0
    2.8693    0.8233    0.0000 C   0  0  0  0  0  0  0  0  0  0  0  0
    2.8693   -0.0050    0.0000 C   0  0  0  0  0  0  0  0  0  0  0  0
    2.1534   -0.4191    0.0000 C   0  0  0  0  0  0  0  0  0  0  0  0
    1.4317   -0.0050    0.0000 C   0  0  0  0  0  0  0  0  0  0  0  0
    1.4317    0.8233    0.0000 C   0  0  0  0  0  0  0  0  0  0  0  0
    2.1534    1.2374    0.0000 C   0  0  0  0  0  0  0  0  0  0  0  0
    0.7158    1.2374    0.0000 O   0  0  0  0  0  0  0  0  0  0  0  0
    0.0000    0.8233    0.0000 C   0  0  0  0  0  0  0  0  0  0  0  0
    0.0000   -0.0050    0.0000 C   0  0  0  0  0  0  0  0  0  0  0  0
    0.7158   -0.4191    0.0000 O   0  0  0  0  0  0  0  0  0  0  0  0
    6.4499    1.2399    0.0000 C   0  0  0  0  0  0  0  0  0  0  0  0
    7.1665    0.8270    0.0000 C   0  0  0  0  0  0  0  0  0  0  0  0
  1  2  1  0  0  0
  2  3  2  0  0  0
  2  4  1  0  0  0
  4 23  1  0  0  0
  4  5  2  0  0  0
  5  6  1  0  0  0
  6  7  2  0  0  0
  7  8  1  0  0  0
  8  9  1  0  0  0
  9 10  2  0  0  0
  9 11  1  0  0  0
 11 12  1  0  0  0
 12 17  1  0  0  0
 12 13  2  0  0  0
 13 14  1  0  0  0
 14 15  2  0  0  0
 15 21  1  0  0  0
 15 16  1  0  0  0
 16 17  2  0  0  0
 16 18  1  0  0  0
 18 19  1  0  0  0
 19 20  1  0  0  0
 20 21  1  0  0  0
  7 22  1  0  0  0
 22 23  2  0  0  0
M  END
>  <Entry>
283

>  <title>
16-3003

>  <rigid docking scores>
-19.0976

>  <InChIKey>
LIRLZWGMENAHBW-UHFFFAOYSA-N

$$$$
atoms 19 bonds 21
dotmatics
mol io
 19 21  0  0  0  0  0  0  0  0999 V2000
   -0.1514    3.9945    0.0000 O   0  0  0  0  0  0  0  0  0  0  0  0
   -0.5649    3.2783    0.0000 C   0  0  0  0  0  0  0  0  0  0  0  0
   -0.1514    2.5621    0.0000 N   0  0  0  0  0  0  0  0  0  0  0  0
    0.6756    2.5621    0.0000 C   0  0  0  0  0  0  0  0  0  0  0  0
    1.3919    2.9756    0.0000 C   0  0  0  0  0  0  0  0  0  0  0  0
    1.3919    2.1486    0.0000 C   0  0  0  0  0  0  0  0  0  0  0  0
    1.8054    1.4324    0.0000 C   0  0  0  0  0  0  0  0  0  0  0  0
    2.6324    1.4324    0.0000 C   0  0  0  0  0  0  0  0  0  0  0  0
    3.0459    0.7162    0.0000 C   0  0  0  0  0  0  0  0  0  0  0  0
    2.6324   -0.0000    0.0000 C   0  0  0  0  0  0  0  0  0  0  0  0
    1.8054   -0.0000    0.0000 C   0  0  0  0  0  0  0  0  0  0  0  0
    1.3919    0.7162    0.0000 C   0  0  0  0  0  0  0  0  0  0  0  0
   -1.3919    3.2783    0.0000 C   0  0  0  0  0  0  0  0  0  0  0  0
   -1.8054    2.5621    0.0000 C   0  0  0  0  0  0  0  0  0  0  0  0
   -2.6324    2.5621    0.0000 C   0  0  0  0  0  0  0  0  0  0  0  0
   -3.0459    3.2783    0.0000 C   0  0  0  0  0  0  0  0  0  0  0  0
   -2.6324    3.9945    0.0000 C   0  0  0  0  0  0  0  0  0  0  0  0
   -1.8054    3.9945    0.0000 C   0  0  0  0  0  0  0  0  0  0  0  0
   -1.3919    4.7107    0.0000 O   0  0  0  0  0  0  0  0  0  0  0  0
  1  2  2  0  0  0
  2  3  1  0  0  0
  3  4  1  0  0  0
  4  6  1  0  0  0
  4  5  1  0  0  0
  5  6  1  0  0  0
  6  7  1  0  0  0
  7 12  1  0  0  0
  7  8  2  0  0  0
  8  9  1  0  0  0
  9 10  2  0  0  0
 10 11  1  0  0  0
 11 12  2  0  0  0
  2 13  1  0  0  0
 13 18  1  0  0  0
 13 14  2  0  0  0
 14 15  1  0  0  0
 15 16  2  0  0  0
 16 17  1  0  0  0
 17 18  2  0  0  0
 18 19  1  0  0  0
M  END
>  <Entry>
284

>  <title>
2-5907

>  <rigid docking scores>
-17.6203

>  <InChIKey>
ADSCUQJPZJDDFJ-UHFFFAOYSA-N

>  <Pubchem>
47399210

$$$$
atoms 20 bonds 22
dotmatics
mol io
 20 22  0  0  0  0  0  0  0  0999 V2000
    7.4492   -0.7160    0.0000 O   0  0  0  0  0  0  0  0  0  0  0  0
    6.6222   -0.7160    0.0000 C   0  0  0  0  0  0  0  0  0  0  0  0
    6.2087   -1.4322    0.0000 C   0  0  0  0  0  0  0  0  0  0  0  0
    5.3817   -1.4322    0.0000 C   0  0  0  0  0  0  0  0  0  0  0  0
    4.9682   -0.7160    0.0000 C   0  0  0  0  0  0  0  0  0  0  0  0
    5.3817    0.0002    0.0000 C   0  0  0  0  0  0  0  0  0  0  0  0
    4.9682    0.7164    0.0000 C   0  0  0  0  0  0  0  0  0  0  0  0
    4.1412    0.7164    0.0000 N   0  0  0  0  0  0  0  0  0  0  0  0
    3.7271    0.0005    0.0000 C   0  0  0  0  0  0  0  0  0  0  0  0
    2.8989    0.0005    0.0000 C   0  0  0  0  0  0  0  0  0  0  0  0
    2.4847    0.7164    0.0000 N   0  0  0  0  0  0  0  0  0  0  0  0
    1.6565    0.7164    0.0000 C   0  0  0  0  0  0  0  0  0  0  0  0
    1.2424    0.0005    0.0000 N   0  0  0  0  0  0  0  0  0  0  0  0
    0.4141    0.0005    0.0000 C   0  0  0  0  0  0  0  0  0  0  0  0
    0.0000    0.7164    0.0000 C   0  0  0  0  0  0  0  0  0  0  0  0
    0.4141    1.4322    0.0000 C   0  0  0  0  0  0  0  0  0  0  0  0
    1.2424    1.4322    0.0000 N   0  0  0  0  0  0  0  0  0  0  0  0
    2.8989    1.4322    0.0000 C   0  0  0  0  0  0  0  0  0  0  0  0
    3.7271    1.4322    0.0000 C   0  0  0  0  0  0  0  0  0  0  0  0
    6.2087    0.0002    0.0000 C   0  0  0  0  0  0  0  0  0  0  0  0
  1  2  1  0  0  0
  2 20  1  0  0  0
  2  3  2  0  0  0
  3  4  1  0  0  0
  4  5  2  0  0  0
  5  6  1  0  0  0
  6  7  1  0  0  0
  7  8  1  0  0  0
  8 19  1  0  0  0
  8  9  1  0  0  0
  9 10  1  0  0  0
 10 11  1  0  0  0
 11 12  1  0  0  0
 12 17  1  0  0  0
 12 13  2  0  0  0
 13 14  1  0  0  0
 14 15  2  0  0  0
 15 16  1  0  0  0
 16 17  2  0  0  0
 11 18  1  0  0  0
 18 19  1  0  0  0
  6 20  2  0  0  0
M  END
>  <Entry>
285

>  <title>
16-3927

>  <rigid docking scores>
-16.4232

>  <InChIKey>
SRFBFCYTYGUTNS-UHFFFAOYSA-N

>  <ZINC>
ZINC000022591394

>  <Pubchem>
2838067

>  <MolPort>
MolPort-022-801-136

$$$$
atoms 23 bonds 25
dotmatics
mol io
 23 25  0  0  0  0  0  0  0  0999 V2000
    4.0058    1.5224    0.0000 C   0  0  0  0  0  0  0  0  0  0  0  0
    3.5923    2.2386    0.0000 C   0  0  0  0  0  0  0  0  0  0  0  0
    4.0058    2.9548    0.0000 O   0  0  0  0  0  0  0  0  0  0  0  0
    2.7653    2.2386    0.0000 C   0  0  0  0  0  0  0  0  0  0  0  0
    2.2743    2.9071    0.0000 O   0  0  0  0  0  0  0  0  0  0  0  0
    1.4874    2.6527    0.0000 C   0  0  0  0  0  0  0  0  0  0  0  0
    0.7716    3.0668    0.0000 C   0  0  0  0  0  0  0  0  0  0  0  0
    0.0557    2.6527    0.0000 C   0  0  0  0  0  0  0  0  0  0  0  0
    0.0557    1.8245    0.0000 C   0  0  0  0  0  0  0  0  0  0  0  0
    0.7716    1.4103    0.0000 C   0  0  0  0  0  0  0  0  0  0  0  0
    1.4874    1.8245    0.0000 C   0  0  0  0  0  0  0  0  0  0  0  0
    2.2743    1.5701    0.0000 C   0  0  0  0  0  0  0  0  0  0  0  0
    2.5267    0.7825    0.0000 N   0  0  0  0  0  0  0  0  0  0  0  0
    1.9709    0.1702    0.0000 C   0  0  0  0  0  0  0  0  0  0  0  0
    1.1626    0.3453    0.0000 O   0  0  0  0  0  0  0  0  0  0  0  0
    2.2233   -0.6174    0.0000 C   0  0  0  0  0  0  0  0  0  0  0  0
    1.6675   -1.2297    0.0000 N   0  0  0  0  0  0  0  0  0  0  0  0
    1.9199   -2.0173    0.0000 C   0  0  0  0  0  0  0  0  0  0  0  0
    1.3641   -2.6296    0.0000 C   0  0  0  0  0  0  0  0  0  0  0  0
    0.5558   -2.4545    0.0000 N   0  0  0  0  0  0  0  0  0  0  0  0
    0.0000   -3.0668    0.0000 C   0  0  0  0  0  0  0  0  0  0  0  0
    0.3034   -1.6669    0.0000 C   0  0  0  0  0  0  0  0  0  0  0  0
    0.8592   -1.0546    0.0000 C   0  0  0  0  0  0  0  0  0  0  0  0
  1  2  1  0  0  0
  2  3  2  0  0  0
  2  4  1  0  0  0
  4 12  2  0  0  0
  4  5  1  0  0  0
  5  6  1  0  0  0
  6 11  1  0  0  0
  6  7  2  0  0  0
  7  8  1  0  0  0
  8  9  2  0  0  0
  9 10  1  0  0  0
 10 11  2  0  0  0
 11 12  1  0  0  0
 12 13  1  0  0  0
 13 14  1  0  0  0
 14 15  2  0  0  0
 14 16  1  0  0  0
 16 17  1  0  0  0
 17 23  1  0  0  0
 17 18  1  0  0  0
 18 19  1  0  0  0
 19 20  1  0  0  0
 20 21  1  0  0  0
 20 22  1  0  0  0
 22 23  1  0  0  0
M  END
>  <Entry>
286

>  <title>
16-5803

>  <rigid docking scores>
-15.7663

>  <InChIKey>
PQQMJXWXFDTRGP-UHFFFAOYSA-N

>  <Pubchem>
137921656

$$$$
atoms 20 bonds 22
dotmatics
mol io
 20 22  0  0  0  0  0  0  0  0999 V2000
    4.2888    2.8048    0.0000 C   0  0  0  0  0  0  0  0  0  0  0  0
    4.0364    2.0173    0.0000 C   0  0  0  0  0  0  0  0  0  0  0  0
    4.5922    1.4049    0.0000 C   0  0  0  0  0  0  0  0  0  0  0  0
    4.3398    0.6174    0.0000 C   0  0  0  0  0  0  0  0  0  0  0  0
    3.5316    0.4422    0.0000 N   0  0  0  0  0  0  0  0  0  0  0  0
    3.2792   -0.3453    0.0000 C   0  0  0  0  0  0  0  0  0  0  0  0
    3.8350   -0.9577    0.0000 O   0  0  0  0  0  0  0  0  0  0  0  0
    2.4709   -0.5205    0.0000 C   0  0  0  0  0  0  0  0  0  0  0  0
    2.2185   -1.3080    0.0000 N   0  0  0  0  0  0  0  0  0  0  0  0
    2.7096   -1.9766    0.0000 C   0  0  0  0  0  0  0  0  0  0  0  0
    3.5366   -1.9766    0.0000 O   0  0  0  0  0  0  0  0  0  0  0  0
    2.2185   -2.6451    0.0000 O   0  0  0  0  0  0  0  0  0  0  0  0
    1.4317   -2.3907    0.0000 C   0  0  0  0  0  0  0  0  0  0  0  0
    0.7158   -2.8048    0.0000 C   0  0  0  0  0  0  0  0  0  0  0  0
    0.0000   -2.3907    0.0000 C   0  0  0  0  0  0  0  0  0  0  0  0
    0.0000   -1.5624    0.0000 C   0  0  0  0  0  0  0  0  0  0  0  0
    0.7158   -1.1483    0.0000 C   0  0  0  0  0  0  0  0  0  0  0  0
    1.4317   -1.5624    0.0000 C   0  0  0  0  0  0  0  0  0  0  0  0
    2.9758    1.0546    0.0000 C   0  0  0  0  0  0  0  0  0  0  0  0
    3.2282    1.8421    0.0000 C   0  0  0  0  0  0  0  0  0  0  0  0
  1  2  1  0  0  0
  2 20  1  0  0  0
  2  3  1  0  0  0
  3  4  1  0  0  0
  4  5  1  0  0  0
  5  6  1  0  0  0
  6  7  2  0  0  0
  6  8  1  0  0  0
  8  9  1  0  0  0
  9 18  1  0  0  0
  9 10  1  0  0  0
 10 11  2  0  0  0
 10 12  1  0  0  0
 12 13  1  0  0  0
 13 18  1  0  0  0
 13 14  2  0  0  0
 14 15  1  0  0  0
 15 16  2  0  0  0
 16 17  1  0  0  0
 17 18  2  0  0  0
  5 19  1  0  0  0
 19 20  1  0  0  0
M  END
>  <Entry>
287

>  <title>
16-5808

>  <rigid docking scores>
-15.4631

>  <InChIKey>
CFDPYTPZULZFAU-UHFFFAOYSA-N

>  <ChEMBL>
CHEMBL1471862

>  <ZINC>
ZINC000002927668

>  <eMolecules>
28323307

>  <Pubchem>
3242945

>  <Mcule>
MCULE-3290097893

>  <MolPort>
MolPort-007-949-319

$$$$
atoms 22 bonds 24
dotmatics
mol io
 22 24  0  0  0  0  0  0  0  0999 V2000
    5.3586    3.0460    0.0000 C   0  0  0  0  0  0  0  0  0  0  0  0
    5.3586    2.2190    0.0000 N   0  0  0  0  0  0  0  0  0  0  0  0
    6.1037    1.8602    0.0000 C   0  0  0  0  0  0  0  0  0  0  0  0
    6.2877    1.0539    0.0000 C   0  0  0  0  0  0  0  0  0  0  0  0
    5.7721    0.4073    0.0000 C   0  0  0  0  0  0  0  0  0  0  0  0
    4.9451    0.4073    0.0000 N   0  0  0  0  0  0  0  0  0  0  0  0
    4.5863   -0.3378    0.0000 C   0  0  0  0  0  0  0  0  0  0  0  0
    5.0522   -1.0211    0.0000 O   0  0  0  0  0  0  0  0  0  0  0  0
    3.7616   -0.3996    0.0000 C   0  0  0  0  0  0  0  0  0  0  0  0
    3.3269   -1.1031    0.0000 C   0  0  0  0  0  0  0  0  0  0  0  0
    2.5234   -0.9070    0.0000 C   0  0  0  0  0  0  0  0  0  0  0  0
    1.8926   -1.4418    0.0000 C   0  0  0  0  0  0  0  0  0  0  0  0
    2.0402   -2.2555    0.0000 C   0  0  0  0  0  0  0  0  0  0  0  0
    1.4094   -2.7902    0.0000 C   0  0  0  0  0  0  0  0  0  0  0  0
    0.6309   -2.5112    0.0000 C   0  0  0  0  0  0  0  0  0  0  0  0
    0.0000   -3.0460    0.0000 F   0  0  0  0  0  0  0  0  0  0  0  0
    0.4832   -1.6975    0.0000 C   0  0  0  0  0  0  0  0  0  0  0  0
    1.1141   -1.1628    0.0000 C   0  0  0  0  0  0  0  0  0  0  0  0
    2.4616   -0.0823    0.0000 O   0  0  0  0  0  0  0  0  0  0  0  0
    3.2269    0.2313    0.0000 N   0  0  0  0  0  0  0  0  0  0  0  0
    4.4295    1.0539    0.0000 C   0  0  0  0  0  0  0  0  0  0  0  0
    4.6135    1.8602    0.0000 C   0  0  0  0  0  0  0  0  0  0  0  0
  1  2  1  0  0  0
  2 22  1  0  0  0
  2  3  1  0  0  0
  3  4  1  0  0  0
  4  5  1  0  0  0
  5  6  1  0  0  0
  6  7  1  0  0  0
  7  8  2  0  0  0
  7  9  1  0  0  0
  9 20  2  0  0  0
  9 10  1  0  0  0
 10 11  2  0  0  0
 11 12  1  0  0  0
 12 18  1  0  0  0
 12 13  2  0  0  0
 13 14  1  0  0  0
 14 15  2  0  0  0
 15 16  1  0  0  0
 15 17  1  0  0  0
 17 18  2  0  0  0
 11 19  1  0  0  0
 19 20  1  0  0  0
  6 21  1  0  0  0
 21 22  1  0  0  0
M  END
>  <Entry>
288

>  <title>
2-6128

>  <rigid docking scores>
-16.3981

>  <InChIKey>
MMZQHYFCOPQVDO-UHFFFAOYSA-N

>  <Mcule>
MCULE-8822722896

$$$$
atoms 23 bonds 25
dotmatics
mol io
 23 25  0  0  0  0  0  0  0  0999 V2000
    0.0000    0.4301    0.0000 C   0  0  0  0  0  0  0  0  0  0  0  0
    0.7158    0.0159    0.0000 N   0  0  0  0  0  0  0  0  0  0  0  0
    0.7158   -0.8123    0.0000 C   0  0  0  0  0  0  0  0  0  0  0  0
    1.4317   -1.2264    0.0000 C   0  0  0  0  0  0  0  0  0  0  0  0
    2.1475   -0.8123    0.0000 C   0  0  0  0  0  0  0  0  0  0  0  0
    2.1475    0.0159    0.0000 C   0  0  0  0  0  0  0  0  0  0  0  0
    2.9344    0.2703    0.0000 S   0  0  0  0  0  0  0  0  0  0  0  0
    3.4254   -0.3982    0.0000 C   0  0  0  0  0  0  0  0  0  0  0  0
    4.2524   -0.3982    0.0000 N   0  0  0  0  0  0  0  0  0  0  0  0
    4.6659    0.3180    0.0000 C   0  0  0  0  0  0  0  0  0  0  0  0
    4.2524    1.0342    0.0000 O   0  0  0  0  0  0  0  0  0  0  0  0
    5.4929    0.3180    0.0000 N   0  0  0  0  0  0  0  0  0  0  0  0
    5.9064    1.0342    0.0000 C   0  0  0  0  0  0  0  0  0  0  0  0
    6.7334    1.0342    0.0000 C   0  0  0  0  0  0  0  0  0  0  0  0
    7.1469    1.7504    0.0000 C   0  0  0  0  0  0  0  0  0  0  0  0
    6.7334    2.4666    0.0000 C   0  0  0  0  0  0  0  0  0  0  0  0
    5.9064    2.4666    0.0000 C   0  0  0  0  0  0  0  0  0  0  0  0
    5.4929    1.7504    0.0000 C   0  0  0  0  0  0  0  0  0  0  0  0
    2.9344   -1.0667    0.0000 C   0  0  0  0  0  0  0  0  0  0  0  0
    3.1868   -1.8542    0.0000 C   0  0  0  0  0  0  0  0  0  0  0  0
    2.6310   -2.4666    0.0000 N   0  0  0  0  0  0  0  0  0  0  0  0
    3.9950   -2.0294    0.0000 O   0  0  0  0  0  0  0  0  0  0  0  0
    1.4317    0.4301    0.0000 C   0  0  0  0  0  0  0  0  0  0  0  0
  1  2  1  0  0  0
  2 23  1  0  0  0
  2  3  1  0  0  0
  3  4  1  0  0  0
  4  5  1  0  0  0
  5 19  1  0  0  0
  5  6  2  0  0  0
  6  7  1  0  0  0
  7  8  1  0  0  0
  8  9  1  0  0  0
  9 10  1  0  0  0
 10 11  2  0  0  0
 10 12  1  0  0  0
 12 13  1  0  0  0
 13 18  1  0  0  0
 13 14  2  0  0  0
 14 15  1  0  0  0
 15 16  2  0  0  0
 16 17  1  0  0  0
 17 18  2  0  0  0
  8 19  2  0  0  0
 19 20  1  0  0  0
 20 21  1  0  0  0
 20 22  2  0  0  0
  6 23  1  0  0  0
M  END
>  <Entry>
289

>  <title>
16-5839

>  <rigid docking scores>
-17.1434

>  <InChIKey>
BTJZUEFHGWAIAO-UHFFFAOYSA-N

$$$$
atoms 22 bonds 24
dotmatics
mol io
 22 24  0  0  0  0  0  0  0  0999 V2000
    7.1651    1.4501    0.0000 C   0  0  0  0  0  0  0  0  0  0  0  0
    6.4492    1.0359    0.0000 O   0  0  0  0  0  0  0  0  0  0  0  0
    6.4499    0.2089    0.0000 C   0  0  0  0  0  0  0  0  0  0  0  0
    7.1665   -0.2039    0.0000 C   0  0  0  0  0  0  0  0  0  0  0  0
    7.1672   -1.0309    0.0000 C   0  0  0  0  0  0  0  0  0  0  0  0
    6.4514   -1.4451    0.0000 C   0  0  0  0  0  0  0  0  0  0  0  0
    5.7348   -1.0322    0.0000 C   0  0  0  0  0  0  0  0  0  0  0  0
    5.7341   -0.2052    0.0000 C   0  0  0  0  0  0  0  0  0  0  0  0
    5.0175    0.2077    0.0000 C   0  0  0  0  0  0  0  0  0  0  0  0
    4.3017   -0.2064    0.0000 C   0  0  0  0  0  0  0  0  0  0  0  0
    3.5851    0.2064    0.0000 C   0  0  0  0  0  0  0  0  0  0  0  0
    3.5844    1.0334    0.0000 O   0  0  0  0  0  0  0  0  0  0  0  0
    2.8693   -0.2077    0.0000 N   0  0  0  0  0  0  0  0  0  0  0  0
    2.8693   -1.0359    0.0000 C   0  0  0  0  0  0  0  0  0  0  0  0
    2.1534   -1.4501    0.0000 C   0  0  0  0  0  0  0  0  0  0  0  0
    1.4317   -1.0359    0.0000 C   0  0  0  0  0  0  0  0  0  0  0  0
    0.7158   -1.4501    0.0000 C   0  0  0  0  0  0  0  0  0  0  0  0
    0.0000   -1.0359    0.0000 C   0  0  0  0  0  0  0  0  0  0  0  0
    0.0000   -0.2077    0.0000 N   0  0  0  0  0  0  0  0  0  0  0  0
    0.7158    0.2064    0.0000 C   0  0  0  0  0  0  0  0  0  0  0  0
    1.4317   -0.2077    0.0000 C   0  0  0  0  0  0  0  0  0  0  0  0
    2.1534    0.2064    0.0000 C   0  0  0  0  0  0  0  0  0  0  0  0
  1  2  1  0  0  0
  2  3  1  0  0  0
  3  8  1  0  0  0
  3  4  2  0  0  0
  4  5  1  0  0  0
  5  6  2  0  0  0
  6  7  1  0  0  0
  7  8  2  0  0  0
  8  9  1  0  0  0
  9 10  1  0  0  0
 10 11  1  0  0  0
 11 12  2  0  0  0
 11 13  1  0  0  0
 13 22  1  0  0  0
 13 14  1  0  0  0
 14 15  1  0  0  0
 15 16  1  0  0  0
 16 21  1  0  0  0
 16 17  2  0  0  0
 17 18  1  0  0  0
 18 19  2  0  0  0
 19 20  1  0  0  0
 20 21  2  0  0  0
 21 22  1  0  0  0
M  END
>  <Entry>
290

>  <title>
16-5912

>  <rigid docking scores>
-15.8117

>  <InChIKey>
RCRJREGXGGXTCG-UHFFFAOYSA-N

$$$$
atoms 21 bonds 24
dotmatics
mol io
 21 24  0  0  0  0  0  0  0  0999 V2000
    1.5221   -2.8296    0.0000 N   0  0  0  0  0  0  0  0  0  0  0  0
    2.0777   -2.2170    0.0000 C   0  0  0  0  0  0  0  0  0  0  0  0
    1.8250   -1.4296    0.0000 C   0  0  0  0  0  0  0  0  0  0  0  0
    1.0167   -1.2547    0.0000 C   0  0  0  0  0  0  0  0  0  0  0  0
    0.7640   -0.4672    0.0000 C   0  0  0  0  0  0  0  0  0  0  0  0
    1.3197    0.1453    0.0000 N   0  0  0  0  0  0  0  0  0  0  0  0
    1.0670    0.9328    0.0000 C   0  0  0  0  0  0  0  0  0  0  0  0
    0.2549    1.1106    0.0000 N   0  0  0  0  0  0  0  0  0  0  0  0
    0.0000    1.8990    0.0000 C   0  0  0  0  0  0  0  0  0  0  0  0
    0.5513    2.5154    0.0000 N   0  0  0  0  0  0  0  0  0  0  0  0
    1.3633    2.3435    0.0000 C   0  0  0  0  0  0  0  0  0  0  0  0
    2.0391    2.8296    0.0000 S   0  0  0  0  0  0  0  0  0  0  0  0
    2.7089    2.3435    0.0000 C   0  0  0  0  0  0  0  0  0  0  0  0
    2.4540    1.5492    0.0000 C   0  0  0  0  0  0  0  0  0  0  0  0
    1.6242    1.5492    0.0000 C   0  0  0  0  0  0  0  0  0  0  0  0
    3.0053    0.9328    0.0000 C   0  0  0  0  0  0  0  0  0  0  0  0
    3.8174    1.1106    0.0000 C   0  0  0  0  0  0  0  0  0  0  0  0
    4.0723    1.8990    0.0000 C   0  0  0  0  0  0  0  0  0  0  0  0
    3.5210    2.5154    0.0000 C   0  0  0  0  0  0  0  0  0  0  0  0
    2.1280   -0.0296    0.0000 C   0  0  0  0  0  0  0  0  0  0  0  0
    2.3806   -0.8170    0.0000 C   0  0  0  0  0  0  0  0  0  0  0  0
  1  2  1  0  0  0
  2  3  1  0  0  0
  3 21  1  0  0  0
  3  4  1  0  0  0
  4  5  1  0  0  0
  5  6  1  0  0  0
  6  7  1  0  0  0
  7 15  1  0  0  0
  7  8  2  0  0  0
  8  9  1  0  0  0
  9 10  2  0  0  0
 10 11  1  0  0  0
 11 15  2  0  0  0
 11 12  1  0  0  0
 12 13  1  0  0  0
 13 19  1  0  0  0
 13 14  2  0  0  0
 14 15  1  0  0  0
 14 16  1  0  0  0
 16 17  1  0  0  0
 17 18  1  0  0  0
 18 19  1  0  0  0
  6 20  1  0  0  0
 20 21  1  0  0  0
M  END
>  <Entry>
291

>  <title>
16-5990

>  <rigid docking scores>
-17.1738

>  <InChIKey>
MDUGAWWIFYFHJU-UHFFFAOYSA-N

$$$$
atoms 20 bonds 22
dotmatics
mol io
 20 22  0  0  0  0  0  0  0  0999 V2000
    4.4743   -1.9019    0.0000 C   0  0  0  0  0  0  0  0  0  0  0  0
    5.1906   -1.4884    0.0000 S   0  0  0  0  0  0  0  0  0  0  0  0
    5.6041   -2.2046    0.0000 O   0  0  0  0  0  0  0  0  0  0  0  0
    5.9068   -1.0749    0.0000 O   0  0  0  0  0  0  0  0  0  0  0  0
    4.7771   -0.7722    0.0000 C   0  0  0  0  0  0  0  0  0  0  0  0
    3.9501   -0.7722    0.0000 C   0  0  0  0  0  0  0  0  0  0  0  0
    3.5366   -0.0560    0.0000 C   0  0  0  0  0  0  0  0  0  0  0  0
    3.9501    0.6602    0.0000 C   0  0  0  0  0  0  0  0  0  0  0  0
    3.5366    1.3764    0.0000 C   0  0  0  0  0  0  0  0  0  0  0  0
    2.7096    1.3764    0.0000 C   0  0  0  0  0  0  0  0  0  0  0  0
    2.2185    0.7079    0.0000 N   0  0  0  0  0  0  0  0  0  0  0  0
    1.4317    0.9623    0.0000 C   0  0  0  0  0  0  0  0  0  0  0  0
    0.7158    0.5481    0.0000 C   0  0  0  0  0  0  0  0  0  0  0  0
    0.0000    0.9623    0.0000 C   0  0  0  0  0  0  0  0  0  0  0  0
    0.0000    1.7905    0.0000 C   0  0  0  0  0  0  0  0  0  0  0  0
    0.7158    2.2046    0.0000 C   0  0  0  0  0  0  0  0  0  0  0  0
    1.4317    1.7905    0.0000 C   0  0  0  0  0  0  0  0  0  0  0  0
    2.2185    2.0449    0.0000 N   0  0  0  0  0  0  0  0  0  0  0  0
    4.7771    0.6602    0.0000 C   0  0  0  0  0  0  0  0  0  0  0  0
    5.1906   -0.0560    0.0000 C   0  0  0  0  0  0  0  0  0  0  0  0
  1  2  1  0  0  0
  2  3  2  0  0  0
  2  4  2  0  0  0
  2  5  1  0  0  0
  5 20  1  0  0  0
  5  6  2  0  0  0
  6  7  1  0  0  0
  7  8  2  0  0  0
  8  9  1  0  0  0
  9 10  1  0  0  0
 10 18  1  0  0  0
 10 11  2  0  0  0
 11 12  1  0  0  0
 12 17  1  0  0  0
 12 13  2  0  0  0
 13 14  1  0  0  0
 14 15  2  0  0  0
 15 16  1  0  0  0
 16 17  2  0  0  0
 17 18  1  0  0  0
  8 19  1  0  0  0
 19 20  2  0  0  0
M  END
>  <Entry>
292

>  <title>
16-7085

>  <rigid docking scores>
-15.8494

>  <InChIKey>
MLVHLKAOISUFRH-UHFFFAOYSA-N

>  <ChEMBL>
CHEMBL3770703

>  <ZINC>
ZINC000653709032

>  <Pubchem>
127028459

$$$$
atoms 23 bonds 25
dotmatics
mol io
 23 25  0  0  0  0  0  0  0  0999 V2000
    1.4638   -2.6915    0.0000 C   0  0  0  0  0  0  0  0  0  0  0  0
    1.4579   -1.8645    0.0000 C   0  0  0  0  0  0  0  0  0  0  0  0
    2.1712   -1.4459    0.0000 S   0  0  0  0  0  0  0  0  0  0  0  0
    1.7526   -0.7327    0.0000 O   0  0  0  0  0  0  0  0  0  0  0  0
    2.5898   -2.1592    0.0000 O   0  0  0  0  0  0  0  0  0  0  0  0
    2.8844   -1.0273    0.0000 C   0  0  0  0  0  0  0  0  0  0  0  0
    3.6035   -1.4357    0.0000 C   0  0  0  0  0  0  0  0  0  0  0  0
    4.3168   -1.0171    0.0000 C   0  0  0  0  0  0  0  0  0  0  0  0
    5.0359   -1.4255    0.0000 C   0  0  0  0  0  0  0  0  0  0  0  0
    4.3109   -0.1901    0.0000 C   0  0  0  0  0  0  0  0  0  0  0  0
    3.5917    0.2183    0.0000 C   0  0  0  0  0  0  0  0  0  0  0  0
    2.8785   -0.2003    0.0000 C   0  0  0  0  0  0  0  0  0  0  0  0
    2.1594    0.2080    0.0000 N   0  0  0  0  0  0  0  0  0  0  0  0
    2.1534    1.0350    0.0000 C   0  0  0  0  0  0  0  0  0  0  0  0
    2.8693    1.4491    0.0000 N   0  0  0  0  0  0  0  0  0  0  0  0
    2.8693    2.2774    0.0000 C   0  0  0  0  0  0  0  0  0  0  0  0
    2.1534    2.6915    0.0000 N   0  0  0  0  0  0  0  0  0  0  0  0
    1.4317    2.2774    0.0000 C   0  0  0  0  0  0  0  0  0  0  0  0
    0.7158    2.6915    0.0000 C   0  0  0  0  0  0  0  0  0  0  0  0
    0.0000    2.2774    0.0000 C   0  0  0  0  0  0  0  0  0  0  0  0
    0.0000    1.4491    0.0000 C   0  0  0  0  0  0  0  0  0  0  0  0
    0.7158    1.0350    0.0000 C   0  0  0  0  0  0  0  0  0  0  0  0
    1.4317    1.4491    0.0000 C   0  0  0  0  0  0  0  0  0  0  0  0
  1  2  1  0  0  0
  2  3  1  0  0  0
  3  4  2  0  0  0
  3  5  2  0  0  0
  3  6  1  0  0  0
  6 12  1  0  0  0
  6  7  2  0  0  0
  7  8  1  0  0  0
  8  9  1  0  0  0
  8 10  2  0  0  0
 10 11  1  0  0  0
 11 12  2  0  0  0
 12 13  1  0  0  0
 13 14  1  0  0  0
 14 23  1  0  0  0
 14 15  2  0  0  0
 15 16  1  0  0  0
 16 17  2  0  0  0
 17 18  1  0  0  0
 18 23  1  0  0  0
 18 19  2  0  0  0
 19 20  1  0  0  0
 20 21  2  0  0  0
 21 22  1  0  0  0
 22 23  2  0  0  0
M  END
>  <Entry>
293

>  <title>
16-7088

>  <rigid docking scores>
-17.0367

>  <InChIKey>
HUUGANBJSIFMPK-UHFFFAOYSA-N

$$$$
atoms 19 bonds 20
dotmatics
mol io
 19 20  0  0  0  0  0  0  0  0999 V2000
    3.8152    0.5141    0.0000 C   0  0  0  0  0  0  0  0  0  0  0  0
    3.8152   -0.3129    0.0000 C   0  0  0  0  0  0  0  0  0  0  0  0
    4.4842   -0.7990    0.0000 C   0  0  0  0  0  0  0  0  0  0  0  0
    5.2707   -0.5434    0.0000 C   0  0  0  0  0  0  0  0  0  0  0  0
    5.8853   -1.0968    0.0000 N   0  0  0  0  0  0  0  0  0  0  0  0
    5.4427    0.2655    0.0000 O   0  0  0  0  0  0  0  0  0  0  0  0
    4.2287   -1.5855    0.0000 C   0  0  0  0  0  0  0  0  0  0  0  0
    3.4017   -1.5855    0.0000 S   0  0  0  0  0  0  0  0  0  0  0  0
    3.1461   -0.7990    0.0000 C   0  0  0  0  0  0  0  0  0  0  0  0
    2.3596   -0.5434    0.0000 S   0  0  0  0  0  0  0  0  0  0  0  0
    2.6151    0.2431    0.0000 O   0  0  0  0  0  0  0  0  0  0  0  0
    2.1040   -1.3300    0.0000 O   0  0  0  0  0  0  0  0  0  0  0  0
    1.5730   -0.2879    0.0000 C   0  0  0  0  0  0  0  0  0  0  0  0
    0.9585   -0.8413    0.0000 C   0  0  0  0  0  0  0  0  0  0  0  0
    0.1719   -0.5857    0.0000 C   0  0  0  0  0  0  0  0  0  0  0  0
    0.0000    0.2232    0.0000 C   0  0  0  0  0  0  0  0  0  0  0  0
    0.6146    0.7766    0.0000 C   0  0  0  0  0  0  0  0  0  0  0  0
    0.4426    1.5855    0.0000 Cl  0  0  0  0  0  0  0  0  0  0  0  0
    1.4011    0.5210    0.0000 C   0  0  0  0  0  0  0  0  0  0  0  0
  1  2  1  0  0  0
  2  9  2  0  0  0
  2  3  1  0  0  0
  3  4  1  0  0  0
  4  5  1  0  0  0
  4  6  2  0  0  0
  3  7  2  0  0  0
  7  8  1  0  0  0
  8  9  1  0  0  0
  9 10  1  0  0  0
 10 11  2  0  0  0
 10 12  2  0  0  0
 10 13  1  0  0  0
 13 19  1  0  0  0
 13 14  2  0  0  0
 14 15  1  0  0  0
 15 16  2  0  0  0
 16 17  1  0  0  0
 17 18  1  0  0  0
 17 19  2  0  0  0
M  END
>  <Entry>
294

>  <title>
16-7501

>  <rigid docking scores>
-15.4493

>  <InChIKey>
YDRGQYIXIJIDEX-UHFFFAOYSA-N

$$$$
atoms 19 bonds 20
dotmatics
mol io
 19 20  0  0  0  0  0  0  0  0999 V2000
    4.3054    0.4141    0.0000 C   0  0  0  0  0  0  0  0  0  0  0  0
    4.2995   -0.4129    0.0000 C   0  0  0  0  0  0  0  0  0  0  0  0
    5.0154   -0.8270    0.0000 C   0  0  0  0  0  0  0  0  0  0  0  0
    5.0154   -1.6552    0.0000 C   0  0  0  0  0  0  0  0  0  0  0  0
    5.7312   -2.0694    0.0000 O   0  0  0  0  0  0  0  0  0  0  0  0
    4.2995   -2.0694    0.0000 O   0  0  0  0  0  0  0  0  0  0  0  0
    3.5778   -1.6552    0.0000 C   0  0  0  0  0  0  0  0  0  0  0  0
    2.8619   -2.0694    0.0000 C   0  0  0  0  0  0  0  0  0  0  0  0
    2.1461   -1.6552    0.0000 C   0  0  0  0  0  0  0  0  0  0  0  0
    2.1461   -0.8270    0.0000 C   0  0  0  0  0  0  0  0  0  0  0  0
    1.4302   -0.4129    0.0000 N   0  0  0  0  0  0  0  0  0  0  0  0
    1.4310    0.4141    0.0000 C   0  0  0  0  0  0  0  0  0  0  0  0
    2.1475    0.8270    0.0000 O   0  0  0  0  0  0  0  0  0  0  0  0
    0.7151    0.8282    0.0000 C   0  0  0  0  0  0  0  0  0  0  0  0
    0.7158    1.6552    0.0000 N   0  0  0  0  0  0  0  0  0  0  0  0
    0.0000    2.0694    0.0000 C   0  0  0  0  0  0  0  0  0  0  0  0
    1.4324    2.0681    0.0000 C   0  0  0  0  0  0  0  0  0  0  0  0
    2.8619   -0.4129    0.0000 C   0  0  0  0  0  0  0  0  0  0  0  0
    3.5778   -0.8270    0.0000 C   0  0  0  0  0  0  0  0  0  0  0  0
  1  2  1  0  0  0
  2 19  1  0  0  0
  2  3  2  0  0  0
  3  4  1  0  0  0
  4  5  2  0  0  0
  4  6  1  0  0  0
  6  7  1  0  0  0
  7 19  1  0  0  0
  7  8  2  0  0  0
  8  9  1  0  0  0
  9 10  2  0  0  0
 10 11  1  0  0  0
 11 12  1  0  0  0
 12 13  2  0  0  0
 12 14  1  0  0  0
 14 15  1  0  0  0
 15 16  1  0  0  0
 15 17  1  0  0  0
 10 18  1  0  0  0
 18 19  2  0  0  0
M  END
>  <Entry>
295

>  <title>
16-7562

>  <rigid docking scores>
-16.0409

>  <InChIKey>
QZHATCVDDLSJNV-UHFFFAOYSA-N

$$$$
atoms 19 bonds 21
dotmatics
mol io
 19 21  0  0  0  0  0  0  0  0999 V2000
    2.9863   -0.0046    0.0000 O   0  0  0  0  0  0  0  0  0  0  0  0
    2.1594    0.0013    0.0000 S   0  0  0  0  0  0  0  0  0  0  0  0
    1.3324    0.0072    0.0000 O   0  0  0  0  0  0  0  0  0  0  0  0
    2.1534   -0.8257    0.0000 C   0  0  0  0  0  0  0  0  0  0  0  0
    2.8693   -1.2398    0.0000 C   0  0  0  0  0  0  0  0  0  0  0  0
    2.8693   -2.0681    0.0000 C   0  0  0  0  0  0  0  0  0  0  0  0
    2.1534   -2.4822    0.0000 C   0  0  0  0  0  0  0  0  0  0  0  0
    1.4317   -2.0681    0.0000 C   0  0  0  0  0  0  0  0  0  0  0  0
    0.7158   -2.4822    0.0000 C   0  0  0  0  0  0  0  0  0  0  0  0
    0.0000   -2.0681    0.0000 C   0  0  0  0  0  0  0  0  0  0  0  0
    0.0000   -1.2398    0.0000 C   0  0  0  0  0  0  0  0  0  0  0  0
    0.7158   -0.8257    0.0000 C   0  0  0  0  0  0  0  0  0  0  0  0
    1.4317   -1.2398    0.0000 C   0  0  0  0  0  0  0  0  0  0  0  0
    2.1653    0.8282    0.0000 N   0  0  0  0  0  0  0  0  0  0  0  0
    1.4520    1.2469    0.0000 C   0  0  0  0  0  0  0  0  0  0  0  0
    1.4579    2.0738    0.0000 C   0  0  0  0  0  0  0  0  0  0  0  0
    2.1771    2.4822    0.0000 O   0  0  0  0  0  0  0  0  0  0  0  0
    2.8903    2.0636    0.0000 C   0  0  0  0  0  0  0  0  0  0  0  0
    2.8844    1.2366    0.0000 C   0  0  0  0  0  0  0  0  0  0  0  0
  1  2  2  0  0  0
  2  3  2  0  0  0
  2  4  1  0  0  0
  4 13  1  0  0  0
  4  5  2  0  0  0
  5  6  1  0  0  0
  6  7  2  0  0  0
  7  8  1  0  0  0
  8 13  1  0  0  0
  8  9  2  0  0  0
  9 10  1  0  0  0
 10 11  2  0  0  0
 11 12  1  0  0  0
 12 13  2  0  0  0
  2 14  1  0  0  0
 14 19  1  0  0  0
 14 15  1  0  0  0
 15 16  1  0  0  0
 16 17  1  0  0  0
 17 18  1  0  0  0
 18 19  1  0  0  0
M  END
>  <Entry>
296

>  <title>
16-7567

>  <rigid docking scores>
-15.831

>  <InChIKey>
IXFFHUDQCVBCGR-UHFFFAOYSA-N

>  <ChEMBL>
CHEMBL1880379

>  <ZINC>
ZINC000000575945

>  <eMolecules>
2226943

>  <SureChEMBL Patents>
SCHEMBL20021983

>  <Pubchem>
964635

>  <Mcule>
MCULE-4027318017

>  <MolPort>
MolPort-000-628-561

$$$$
atoms 21 bonds 22
dotmatics
mol io
 21 22  0  0  0  0  0  0  0  0999 V2000
    6.4458    1.5986    0.0000 C   0  0  0  0  0  0  0  0  0  0  0  0
    5.7296    1.1851    0.0000 O   0  0  0  0  0  0  0  0  0  0  0  0
    5.7296    0.3581    0.0000 C   0  0  0  0  0  0  0  0  0  0  0  0
    6.4458   -0.0554    0.0000 C   0  0  0  0  0  0  0  0  0  0  0  0
    6.4458   -0.8824    0.0000 C   0  0  0  0  0  0  0  0  0  0  0  0
    5.7296   -1.2959    0.0000 C   0  0  0  0  0  0  0  0  0  0  0  0
    5.0134   -0.8824    0.0000 C   0  0  0  0  0  0  0  0  0  0  0  0
    4.2972   -1.2959    0.0000 N   0  0  0  0  0  0  0  0  0  0  0  0
    3.5810   -0.8824    0.0000 S   0  0  0  0  0  0  0  0  0  0  0  0
    3.1675   -1.5986    0.0000 O   0  0  0  0  0  0  0  0  0  0  0  0
    3.9945   -0.1662    0.0000 O   0  0  0  0  0  0  0  0  0  0  0  0
    2.8648   -0.4689    0.0000 C   0  0  0  0  0  0  0  0  0  0  0  0
    2.1486   -0.8824    0.0000 C   0  0  0  0  0  0  0  0  0  0  0  0
    1.4324   -0.4689    0.0000 C   0  0  0  0  0  0  0  0  0  0  0  0
    1.4324    0.3581    0.0000 C   0  0  0  0  0  0  0  0  0  0  0  0
    0.7162    0.7716    0.0000 C   0  0  0  0  0  0  0  0  0  0  0  0
    0.7162    1.5986    0.0000 N   0  0  0  0  0  0  0  0  0  0  0  0
    0.0000    0.3581    0.0000 O   0  0  0  0  0  0  0  0  0  0  0  0
    2.1486    0.7716    0.0000 C   0  0  0  0  0  0  0  0  0  0  0  0
    2.8648    0.3581    0.0000 C   0  0  0  0  0  0  0  0  0  0  0  0
    5.0134   -0.0554    0.0000 C   0  0  0  0  0  0  0  0  0  0  0  0
  1  2  1  0  0  0
  2  3  1  0  0  0
  3 21  1  0  0  0
  3  4  2  0  0  0
  4  5  1  0  0  0
  5  6  2  0  0  0
  6  7  1  0  0  0
  7  8  1  0  0  0
  8  9  1  0  0  0
  9 10  2  0  0  0
  9 11  2  0  0  0
  9 12  1  0  0  0
 12 20  1  0  0  0
 12 13  2  0  0  0
 13 14  1  0  0  0
 14 15  2  0  0  0
 15 16  1  0  0  0
 16 17  1  0  0  0
 16 18  2  0  0  0
 15 19  1  0  0  0
 19 20  2  0  0  0
  7 21  2  0  0  0
M  END
>  <Entry>
297

>  <title>
16-7672

>  <rigid docking scores>
-16.3591

>  <InChIKey>
PIXCASYCBUMIGR-UHFFFAOYSA-N

>  <SureChEMBL Patents>
SCHEMBL5445300

>  <Pubchem>
51263304

$$$$
atoms 21 bonds 22
dotmatics
mol io
 21 22  0  0  0  0  0  0  0  0999 V2000
   -3.7215    5.0134    0.0000 C   0  0  0  0  0  0  0  0  0  0  0  0
   -3.3080    4.2972    0.0000 O   0  0  0  0  0  0  0  0  0  0  0  0
   -2.4810    4.2972    0.0000 C   0  0  0  0  0  0  0  0  0  0  0  0
   -2.0675    5.0134    0.0000 C   0  0  0  0  0  0  0  0  0  0  0  0
   -1.2405    5.0134    0.0000 C   0  0  0  0  0  0  0  0  0  0  0  0
   -0.8270    4.2972    0.0000 C   0  0  0  0  0  0  0  0  0  0  0  0
    0.0000    4.2972    0.0000 C   0  0  0  0  0  0  0  0  0  0  0  0
    0.4135    3.5810    0.0000 C   0  0  0  0  0  0  0  0  0  0  0  0
    0.0000    2.8648    0.0000 O   0  0  0  0  0  0  0  0  0  0  0  0
    1.2405    3.5810    0.0000 N   0  0  0  0  0  0  0  0  0  0  0  0
    1.6540    2.8648    0.0000 C   0  0  0  0  0  0  0  0  0  0  0  0
    2.4810    2.8648    0.0000 C   0  0  0  0  0  0  0  0  0  0  0  0
    2.8945    2.1486    0.0000 C   0  0  0  0  0  0  0  0  0  0  0  0
    2.4810    1.4324    0.0000 C   0  0  0  0  0  0  0  0  0  0  0  0
    2.8945    0.7162    0.0000 C   0  0  0  0  0  0  0  0  0  0  0  0
    2.4810   -0.0000    0.0000 N   0  0  0  0  0  0  0  0  0  0  0  0
    3.7215    0.7162    0.0000 O   0  0  0  0  0  0  0  0  0  0  0  0
    1.6540    1.4324    0.0000 C   0  0  0  0  0  0  0  0  0  0  0  0
    1.2405    2.1486    0.0000 C   0  0  0  0  0  0  0  0  0  0  0  0
   -1.2405    3.5810    0.0000 C   0  0  0  0  0  0  0  0  0  0  0  0
   -2.0675    3.5810    0.0000 C   0  0  0  0  0  0  0  0  0  0  0  0
  1  2  1  0  0  0
  2  3  1  0  0  0
  3 21  1  0  0  0
  3  4  2  0  0  0
  4  5  1  0  0  0
  5  6  2  0  0  0
  6  7  1  0  0  0
  7  8  1  0  0  0
  8  9  2  0  0  0
  8 10  1  0  0  0
 10 11  1  0  0  0
 11 19  1  0  0  0
 11 12  2  0  0  0
 12 13  1  0  0  0
 13 14  2  0  0  0
 14 15  1  0  0  0
 15 16  1  0  0  0
 15 17  2  0  0  0
 14 18  1  0  0  0
 18 19  2  0  0  0
  6 20  1  0  0  0
 20 21  2  0  0  0
M  END
>  <Entry>
298

>  <title>
16-7711

>  <rigid docking scores>
-18.2712

>  <InChIKey>
VUHKIYHMPMTFSQ-UHFFFAOYSA-N

>  <ChEMBL>
CHEMBL1578066

>  <ZINC>
ZINC000000357443

>  <eMolecules>
3766281

>  <Pubchem>
832652

>  <Mcule>
MCULE-9140303349

>  <MolPort>
MolPort-001-497-838

$$$$
atoms 20 bonds 21
dotmatics
mol io
 20 21  0  0  0  0  0  0  0  0999 V2000
    6.4458    1.6540    0.0000 C   0  0  0  0  0  0  0  0  0  0  0  0
    6.4458    0.8270    0.0000 C   0  0  0  0  0  0  0  0  0  0  0  0
    7.1620    0.4135    0.0000 C   0  0  0  0  0  0  0  0  0  0  0  0
    7.1620   -0.4135    0.0000 C   0  0  0  0  0  0  0  0  0  0  0  0
    6.4458   -0.8270    0.0000 C   0  0  0  0  0  0  0  0  0  0  0  0
    6.4458   -1.6540    0.0000 Cl  0  0  0  0  0  0  0  0  0  0  0  0
    5.7296   -0.4135    0.0000 C   0  0  0  0  0  0  0  0  0  0  0  0
    5.7296    0.4135    0.0000 C   0  0  0  0  0  0  0  0  0  0  0  0
    5.0134    0.8270    0.0000 N   0  0  0  0  0  0  0  0  0  0  0  0
    4.2972    0.4135    0.0000 C   0  0  0  0  0  0  0  0  0  0  0  0
    4.2972   -0.4135    0.0000 O   0  0  0  0  0  0  0  0  0  0  0  0
    3.5810    0.8270    0.0000 C   0  0  0  0  0  0  0  0  0  0  0  0
    2.8648    0.4135    0.0000 N   0  0  0  0  0  0  0  0  0  0  0  0
    2.1486    0.8270    0.0000 C   0  0  0  0  0  0  0  0  0  0  0  0
    1.4324    0.4135    0.0000 C   0  0  0  0  0  0  0  0  0  0  0  0
    0.7162    0.8270    0.0000 C   0  0  0  0  0  0  0  0  0  0  0  0
    0.0000    0.4135    0.0000 C   0  0  0  0  0  0  0  0  0  0  0  0
    0.0000   -0.4135    0.0000 N   0  0  0  0  0  0  0  0  0  0  0  0
    0.7162   -0.8270    0.0000 C   0  0  0  0  0  0  0  0  0  0  0  0
    1.4324   -0.4135    0.0000 C   0  0  0  0  0  0  0  0  0  0  0  0
  1  2  1  0  0  0
  2  8  1  0  0  0
  2  3  2  0  0  0
  3  4  1  0  0  0
  4  5  2  0  0  0
  5  6  1  0  0  0
  5  7  1  0  0  0
  7  8  2  0  0  0
  8  9  1  0  0  0
  9 10  1  0  0  0
 10 11  2  0  0  0
 10 12  1  0  0  0
 12 13  1  0  0  0
 13 14  1  0  0  0
 14 15  1  0  0  0
 15 20  1  0  0  0
 15 16  2  0  0  0
 16 17  1  0  0  0
 17 18  2  0  0  0
 18 19  1  0  0  0
 19 20  2  0  0  0
M  END
>  <Entry>
299

>  <title>
16-7923

>  <rigid docking scores>
-15.329

>  <InChIKey>
IBCQWTLKPJZEEP-UHFFFAOYSA-N

>  <ZINC>
ZINC000095351427

>  <Pubchem>
43405205

>  <Mcule>
MCULE-4096192344

>  <MolPort>
MolPort-011-011-623

$$$$
atoms 20 bonds 22
dotmatics
mol io
 20 22  0  0  0  0  0  0  0  0999 V2000
    4.3024   -0.8251    0.0000 O   0  0  0  0  0  0  0  0  0  0  0  0
    4.3017    0.0019    0.0000 C   0  0  0  0  0  0  0  0  0  0  0  0
    3.5851    0.4147    0.0000 C   0  0  0  0  0  0  0  0  0  0  0  0
    2.8693    0.0006    0.0000 N   0  0  0  0  0  0  0  0  0  0  0  0
    2.8693   -0.8276    0.0000 C   0  0  0  0  0  0  0  0  0  0  0  0
    2.1534   -1.2417    0.0000 C   0  0  0  0  0  0  0  0  0  0  0  0
    1.4317   -0.8276    0.0000 C   0  0  0  0  0  0  0  0  0  0  0  0
    0.7158   -1.2417    0.0000 C   0  0  0  0  0  0  0  0  0  0  0  0
    0.0000   -0.8276    0.0000 C   0  0  0  0  0  0  0  0  0  0  0  0
    0.0000    0.0006    0.0000 C   0  0  0  0  0  0  0  0  0  0  0  0
    0.7158    0.4147    0.0000 C   0  0  0  0  0  0  0  0  0  0  0  0
    0.7158    1.2417    0.0000 Br  0  0  0  0  0  0  0  0  0  0  0  0
    1.4317    0.0006    0.0000 C   0  0  0  0  0  0  0  0  0  0  0  0
    2.1534    0.4147    0.0000 C   0  0  0  0  0  0  0  0  0  0  0  0
    5.0175    0.4160    0.0000 N   0  0  0  0  0  0  0  0  0  0  0  0
    5.7341    0.0031    0.0000 C   0  0  0  0  0  0  0  0  0  0  0  0
    6.4893    0.3401    0.0000 C   0  0  0  0  0  0  0  0  0  0  0  0
    7.0432   -0.2739    0.0000 C   0  0  0  0  0  0  0  0  0  0  0  0
    6.6303   -0.9905    0.0000 C   0  0  0  0  0  0  0  0  0  0  0  0
    5.8213   -0.8193    0.0000 C   0  0  0  0  0  0  0  0  0  0  0  0
  1  2  2  0  0  0
  2  3  1  0  0  0
  3  4  1  0  0  0
  4 14  1  0  0  0
  4  5  1  0  0  0
  5  6  1  0  0  0
  6  7  1  0  0  0
  7 13  1  0  0  0
  7  8  2  0  0  0
  8  9  1  0  0  0
  9 10  2  0  0  0
 10 11  1  0  0  0
 11 12  1  0  0  0
 11 13  2  0  0  0
 13 14  1  0  0  0
  2 15  1  0  0  0
 15 16  1  0  0  0
 16 20  1  0  0  0
 16 17  1  0  0  0
 17 18  1  0  0  0
 18 19  1  0  0  0
 19 20  1  0  0  0
M  END
>  <Entry>
300

>  <title>
16-8645

>  <rigid docking scores>
-16.0944

>  <InChIKey>
FDISWHARYNTQRN-UHFFFAOYSA-N

>  <Mcule>
MCULE-9043486737

$$$$
atoms 20 bonds 22
dotmatics
mol io
 20 22  0  0  0  0  0  0  0  0999 V2000
    4.8571   -0.3526    0.0000 O   0  0  0  0  0  0  0  0  0  0  0  0
    4.1412    0.0615    0.0000 S   0  0  0  0  0  0  0  0  0  0  0  0
    3.4254    0.4757    0.0000 O   0  0  0  0  0  0  0  0  0  0  0  0
    3.7271   -0.6543    0.0000 C   0  0  0  0  0  0  0  0  0  0  0  0
    4.1412   -1.3702    0.0000 C   0  0  0  0  0  0  0  0  0  0  0  0
    3.7271   -2.0860    0.0000 N   0  0  0  0  0  0  0  0  0  0  0  0
    2.8989   -2.0860    0.0000 C   0  0  0  0  0  0  0  0  0  0  0  0
    2.4847   -1.3702    0.0000 C   0  0  0  0  0  0  0  0  0  0  0  0
    1.6565   -1.3702    0.0000 C   0  0  0  0  0  0  0  0  0  0  0  0
    1.2424   -2.0860    0.0000 C   0  0  0  0  0  0  0  0  0  0  0  0
    0.4141   -2.0860    0.0000 C   0  0  0  0  0  0  0  0  0  0  0  0
    0.0000   -1.3702    0.0000 C   0  0  0  0  0  0  0  0  0  0  0  0
    0.4141   -0.6543    0.0000 C   0  0  0  0  0  0  0  0  0  0  0  0
    1.2424   -0.6543    0.0000 C   0  0  0  0  0  0  0  0  0  0  0  0
    2.8989   -0.6543    0.0000 C   0  0  0  0  0  0  0  0  0  0  0  0
    4.5554    0.7774    0.0000 N   0  0  0  0  0  0  0  0  0  0  0  0
    4.2197    1.5332    0.0000 C   0  0  0  0  0  0  0  0  0  0  0  0
    4.8347    2.0860    0.0000 C   0  0  0  0  0  0  0  0  0  0  0  0
    5.5506    1.6719    0.0000 C   0  0  0  0  0  0  0  0  0  0  0  0
    5.3779    0.8631    0.0000 C   0  0  0  0  0  0  0  0  0  0  0  0
  1  2  2  0  0  0
  2  3  2  0  0  0
  2  4  1  0  0  0
  4 15  1  0  0  0
  4  5  2  0  0  0
  5  6  1  0  0  0
  6  7  2  0  0  0
  7  8  1  0  0  0
  8  9  1  0  0  0
  9 14  1  0  0  0
  9 10  2  0  0  0
 10 11  1  0  0  0
 11 12  2  0  0  0
 12 13  1  0  0  0
 13 14  2  0  0  0
  8 15  2  0  0  0
  2 16  1  0  0  0
 16 20  1  0  0  0
 16 17  1  0  0  0
 17 18  1  0  0  0
 18 19  1  0  0  0
 19 20  1  0  0  0
M  END
>  <Entry>
301

>  <title>
16-9181

>  <rigid docking scores>
-15.753

>  <InChIKey>
YVNOLJUHPLOYLD-UHFFFAOYSA-N

$$$$
atoms 23 bonds 25
dotmatics
mol io
 23 25  0  0  0  0  0  0  0  0999 V2000
    3.5917   -0.8308    0.0000 O   0  0  0  0  0  0  0  0  0  0  0  0
    2.8785   -0.4122    0.0000 C   0  0  0  0  0  0  0  0  0  0  0  0
    2.1594   -0.8206    0.0000 C   0  0  0  0  0  0  0  0  0  0  0  0
    2.1534   -1.6476    0.0000 N   0  0  0  0  0  0  0  0  0  0  0  0
    2.8693   -2.0617    0.0000 C   0  0  0  0  0  0  0  0  0  0  0  0
    3.5851   -1.6476    0.0000 O   0  0  0  0  0  0  0  0  0  0  0  0
    2.8693   -2.8899    0.0000 C   0  0  0  0  0  0  0  0  0  0  0  0
    2.1534   -3.3041    0.0000 O   0  0  0  0  0  0  0  0  0  0  0  0
    1.4317   -2.8899    0.0000 C   0  0  0  0  0  0  0  0  0  0  0  0
    0.7158   -3.3041    0.0000 C   0  0  0  0  0  0  0  0  0  0  0  0
    0.0000   -2.8899    0.0000 C   0  0  0  0  0  0  0  0  0  0  0  0
    0.0000   -2.0617    0.0000 C   0  0  0  0  0  0  0  0  0  0  0  0
    0.7158   -1.6476    0.0000 C   0  0  0  0  0  0  0  0  0  0  0  0
    1.4317   -2.0617    0.0000 C   0  0  0  0  0  0  0  0  0  0  0  0
    2.8844    0.4148    0.0000 N   0  0  0  0  0  0  0  0  0  0  0  0
    3.6035    0.8231    0.0000 C   0  0  0  0  0  0  0  0  0  0  0  0
    3.6094    1.6501    0.0000 C   0  0  0  0  0  0  0  0  0  0  0  0
    2.8962    2.0687    0.0000 C   0  0  0  0  0  0  0  0  0  0  0  0
    2.9021    2.8957    0.0000 C   0  0  0  0  0  0  0  0  0  0  0  0
    3.6213    3.3041    0.0000 C   0  0  0  0  0  0  0  0  0  0  0  0
    4.3345    2.8855    0.0000 C   0  0  0  0  0  0  0  0  0  0  0  0
    4.3286    2.0585    0.0000 C   0  0  0  0  0  0  0  0  0  0  0  0
    5.0418    1.6399    0.0000 Cl  0  0  0  0  0  0  0  0  0  0  0  0
  1  2  2  0  0  0
  2  3  1  0  0  0
  3  4  1  0  0  0
  4 14  1  0  0  0
  4  5  1  0  0  0
  5  6  2  0  0  0
  5  7  1  0  0  0
  7  8  1  0  0  0
  8  9  1  0  0  0
  9 14  1  0  0  0
  9 10  2  0  0  0
 10 11  1  0  0  0
 11 12  2  0  0  0
 12 13  1  0  0  0
 13 14  2  0  0  0
  2 15  1  0  0  0
 15 16  1  0  0  0
 16 17  1  0  0  0
 17 22  1  0  0  0
 17 18  2  0  0  0
 18 19  1  0  0  0
 19 20  2  0  0  0
 20 21  1  0  0  0
 21 22  2  0  0  0
 22 23  1  0  0  0
M  END
>  <Entry>
302

>  <title>
16-9271

>  <rigid docking scores>
-16.0949

>  <InChIKey>
DGFZNKBGCDXIOF-UHFFFAOYSA-N

$$$$
atoms 22 bonds 23
dotmatics
mol io
 22 23  0  0  0  0  0  0  0  0999 V2000
   -4.3418    2.8648    0.0000 C   0  0  0  0  0  0  0  0  0  0  0  0
   -3.5148    2.8648    0.0000 C   0  0  0  0  0  0  0  0  0  0  0  0
   -3.1012    3.5810    0.0000 C   0  0  0  0  0  0  0  0  0  0  0  0
   -2.2743    3.5810    0.0000 C   0  0  0  0  0  0  0  0  0  0  0  0
   -1.8607    2.8648    0.0000 C   0  0  0  0  0  0  0  0  0  0  0  0
   -1.0338    2.8648    0.0000 N   0  0  0  0  0  0  0  0  0  0  0  0
   -0.6202    2.1486    0.0000 C   0  0  0  0  0  0  0  0  0  0  0  0
   -1.0338    1.4324    0.0000 O   0  0  0  0  0  0  0  0  0  0  0  0
    0.2068    2.1486    0.0000 C   0  0  0  0  0  0  0  0  0  0  0  0
    0.6202    1.4324    0.0000 S   0  0  0  0  0  0  0  0  0  0  0  0
    1.4473    1.4324    0.0000 C   0  0  0  0  0  0  0  0  0  0  0  0
    1.8607    2.1486    0.0000 N   0  0  0  0  0  0  0  0  0  0  0  0
    2.6878    2.1486    0.0000 C   0  0  0  0  0  0  0  0  0  0  0  0
    3.1012    1.4324    0.0000 C   0  0  0  0  0  0  0  0  0  0  0  0
    3.9283    1.4324    0.0000 C   0  0  0  0  0  0  0  0  0  0  0  0
    4.3418    0.7162    0.0000 N   0  0  0  0  0  0  0  0  0  0  0  0
    4.3418    2.1486    0.0000 O   0  0  0  0  0  0  0  0  0  0  0  0
    2.6878    0.7162    0.0000 C   0  0  0  0  0  0  0  0  0  0  0  0
    1.8607    0.7162    0.0000 C   0  0  0  0  0  0  0  0  0  0  0  0
    1.4473   -0.0000    0.0000 Cl  0  0  0  0  0  0  0  0  0  0  0  0
   -2.2743    2.1486    0.0000 C   0  0  0  0  0  0  0  0  0  0  0  0
   -3.1012    2.1486    0.0000 C   0  0  0  0  0  0  0  0  0  0  0  0
  1  2  1  0  0  0
  2 22  1  0  0  0
  2  3  2  0  0  0
  3  4  1  0  0  0
  4  5  2  0  0  0
  5  6  1  0  0  0
  6  7  1  0  0  0
  7  8  2  0  0  0
  7  9  1  0  0  0
  9 10  1  0  0  0
 10 11  1  0  0  0
 11 19  1  0  0  0
 11 12  2  0  0  0
 12 13  1  0  0  0
 13 14  2  0  0  0
 14 15  1  0  0  0
 15 16  1  0  0  0
 15 17  2  0  0  0
 14 18  1  0  0  0
 18 19  2  0  0  0
 19 20  1  0  0  0
  5 21  1  0  0  0
 21 22  2  0  0  0
M  END
>  <Entry>
303

>  <title>
16-9738

>  <rigid docking scores>
-19.8023

>  <InChIKey>
PZCXXDHGTVPVGU-UHFFFAOYSA-N

$$$$
atoms 18 bonds 19
dotmatics
mol io
 18 19  0  0  0  0  0  0  0  0999 V2000
   -3.5439    2.8177    0.0000 C   0  0  0  0  0  0  0  0  0  0  0  0
   -3.1304    2.1015    0.0000 S   0  0  0  0  0  0  0  0  0  0  0  0
   -2.3034    2.1015    0.0000 C   0  0  0  0  0  0  0  0  0  0  0  0
   -1.8899    1.3853    0.0000 C   0  0  0  0  0  0  0  0  0  0  0  0
   -1.0629    1.3853    0.0000 C   0  0  0  0  0  0  0  0  0  0  0  0
   -0.6494    2.1015    0.0000 O   0  0  0  0  0  0  0  0  0  0  0  0
   -0.6494    0.6691    0.0000 N   0  0  0  0  0  0  0  0  0  0  0  0
    0.1776    0.6691    0.0000 C   0  0  0  0  0  0  0  0  0  0  0  0
    0.6637    1.3381    0.0000 N   0  0  0  0  0  0  0  0  0  0  0  0
    1.4503    1.0826    0.0000 C   0  0  0  0  0  0  0  0  0  0  0  0
    2.1193    1.5687    0.0000 C   0  0  0  0  0  0  0  0  0  0  0  0
    2.0329    2.3911    0.0000 C   0  0  0  0  0  0  0  0  0  0  0  0
    2.7019    2.8772    0.0000 C   0  0  0  0  0  0  0  0  0  0  0  0
    3.4574    2.5409    0.0000 C   0  0  0  0  0  0  0  0  0  0  0  0
    3.5439    1.7184    0.0000 C   0  0  0  0  0  0  0  0  0  0  0  0
    2.8748    1.2323    0.0000 N   0  0  0  0  0  0  0  0  0  0  0  0
    1.4503    0.2556    0.0000 C   0  0  0  0  0  0  0  0  0  0  0  0
    0.6637   -0.0000    0.0000 S   0  0  0  0  0  0  0  0  0  0  0  0
  1  2  1  0  0  0
  2  3  1  0  0  0
  3  4  1  0  0  0
  4  5  1  0  0  0
  5  6  2  0  0  0
  5  7  1  0  0  0
  7  8  1  0  0  0
  8 18  1  0  0  0
  8  9  2  0  0  0
  9 10  1  0  0  0
 10 11  1  0  0  0
 11 16  1  0  0  0
 11 12  2  0  0  0
 12 13  1  0  0  0
 13 14  2  0  0  0
 14 15  1  0  0  0
 15 16  2  0  0  0
 10 17  2  0  0  0
 17 18  1  0  0  0
M  END
>  <Entry>
304

>  <title>
16-9812

>  <rigid docking scores>
-16.0911

>  <InChIKey>
RIMMVZCGQHXTDT-UHFFFAOYSA-N

>  <ChEMBL>
CHEMBL1530299

>  <Pubchem>
2594420

$$$$
atoms 18 bonds 20
dotmatics
mol io
 18 20  0  0  0  0  0  0  0  0999 V2000
   -2.8550    3.7419    0.0000 C   0  0  0  0  0  0  0  0  0  0  0  0
   -2.0280    3.7419    0.0000 N   0  0  0  0  0  0  0  0  0  0  0  0
   -1.6692    4.4870    0.0000 C   0  0  0  0  0  0  0  0  0  0  0  0
   -0.8629    4.6710    0.0000 C   0  0  0  0  0  0  0  0  0  0  0  0
   -0.2163    4.1554    0.0000 C   0  0  0  0  0  0  0  0  0  0  0  0
   -0.2163    3.3284    0.0000 N   0  0  0  0  0  0  0  0  0  0  0  0
    0.5288    2.9696    0.0000 C   0  0  0  0  0  0  0  0  0  0  0  0
    1.2570    3.3615    0.0000 N   0  0  0  0  0  0  0  0  0  0  0  0
    1.8548    2.7900    0.0000 N   0  0  0  0  0  0  0  0  0  0  0  0
    1.4959    2.0449    0.0000 C   0  0  0  0  0  0  0  0  0  0  0  0
    1.8878    1.3166    0.0000 N   0  0  0  0  0  0  0  0  0  0  0  0
    2.7073    1.2056    0.0000 C   0  0  0  0  0  0  0  0  0  0  0  0
    2.8550    0.3919    0.0000 C   0  0  0  0  0  0  0  0  0  0  0  0
    2.1268   -0.0000    0.0000 C   0  0  0  0  0  0  0  0  0  0  0  0
    1.5290    0.5715    0.0000 C   0  0  0  0  0  0  0  0  0  0  0  0
    0.6764    2.1559    0.0000 S   0  0  0  0  0  0  0  0  0  0  0  0
   -0.8629    2.8128    0.0000 C   0  0  0  0  0  0  0  0  0  0  0  0
   -1.6692    2.9968    0.0000 C   0  0  0  0  0  0  0  0  0  0  0  0
  1  2  1  0  0  0
  2 18  1  0  0  0
  2  3  1  0  0  0
  3  4  1  0  0  0
  4  5  1  0  0  0
  5  6  1  0  0  0
  6  7  1  0  0  0
  7 16  1  0  0  0
  7  8  2  0  0  0
  8  9  1  0  0  0
  9 10  2  0  0  0
 10 11  1  0  0  0
 11 15  1  0  0  0
 11 12  1  0  0  0
 12 13  2  0  0  0
 13 14  1  0  0  0
 14 15  2  0  0  0
 10 16  1  0  0  0
  6 17  1  0  0  0
 17 18  1  0  0  0
M  END
>  <Entry>
305

>  <title>
18-960

>  <rigid docking scores>
-16.7723

>  <InChIKey>
BSQSZLGNRHVKRA-UHFFFAOYSA-N

$$$$
atoms 20 bonds 22
dotmatics
mol io
 20 22  0  0  0  0  0  0  0  0999 V2000
    4.3286    2.6813    0.0000 C   0  0  0  0  0  0  0  0  0  0  0  0
    3.6094    2.2729    0.0000 O   0  0  0  0  0  0  0  0  0  0  0  0
    3.6035    1.4459    0.0000 C   0  0  0  0  0  0  0  0  0  0  0  0
    4.3168    1.0273    0.0000 C   0  0  0  0  0  0  0  0  0  0  0  0
    4.3109    0.2003    0.0000 C   0  0  0  0  0  0  0  0  0  0  0  0
    3.5917   -0.2080    0.0000 C   0  0  0  0  0  0  0  0  0  0  0  0
    2.8785    0.2106    0.0000 C   0  0  0  0  0  0  0  0  0  0  0  0
    2.1594   -0.1978    0.0000 C   0  0  0  0  0  0  0  0  0  0  0  0
    1.4461    0.2208    0.0000 O   0  0  0  0  0  0  0  0  0  0  0  0
    2.1534   -1.0248    0.0000 N   0  0  0  0  0  0  0  0  0  0  0  0
    2.8693   -1.4389    0.0000 C   0  0  0  0  0  0  0  0  0  0  0  0
    2.8693   -2.2672    0.0000 C   0  0  0  0  0  0  0  0  0  0  0  0
    2.1534   -2.6813    0.0000 O   0  0  0  0  0  0  0  0  0  0  0  0
    1.4317   -2.2672    0.0000 C   0  0  0  0  0  0  0  0  0  0  0  0
    0.7158   -2.6813    0.0000 C   0  0  0  0  0  0  0  0  0  0  0  0
    0.0000   -2.2672    0.0000 C   0  0  0  0  0  0  0  0  0  0  0  0
    0.0000   -1.4389    0.0000 C   0  0  0  0  0  0  0  0  0  0  0  0
    0.7158   -1.0248    0.0000 C   0  0  0  0  0  0  0  0  0  0  0  0
    1.4317   -1.4389    0.0000 C   0  0  0  0  0  0  0  0  0  0  0  0
    2.8844    1.0376    0.0000 C   0  0  0  0  0  0  0  0  0  0  0  0
  1  2  1  0  0  0
  2  3  1  0  0  0
  3 20  1  0  0  0
  3  4  2  0  0  0
  4  5  1  0  0  0
  5  6  2  0  0  0
  6  7  1  0  0  0
  7  8  1  0  0  0
  8  9  2  0  0  0
  8 10  1  0  0  0
 10 19  1  0  0  0
 10 11  1  0  0  0
 11 12  1  0  0  0
 12 13  1  0  0  0
 13 14  1  0  0  0
 14 19  1  0  0  0
 14 15  2  0  0  0
 15 16  1  0  0  0
 16 17  2  0  0  0
 17 18  1  0  0  0
 18 19  2  0  0  0
  7 20  2  0  0  0
M  END
>  <Entry>
306

>  <title>
18-1817

>  <rigid docking scores>
-15.5982

>  <InChIKey>
IEMAGPQXQFXGGZ-UHFFFAOYSA-N

>  <Pubchem>
31921717

$$$$
atoms 24 bonds 26
dotmatics
mol io
 24 26  0  0  0  0  0  0  0  0999 V2000
    7.8782    1.8608    0.0000 C   0  0  0  0  0  0  0  0  0  0  0  0
    7.8782    1.0338    0.0000 C   0  0  0  0  0  0  0  0  0  0  0  0
    8.5944    0.6203    0.0000 C   0  0  0  0  0  0  0  0  0  0  0  0
    8.5944   -0.2067    0.0000 N   0  0  0  0  0  0  0  0  0  0  0  0
    7.8782   -0.6202    0.0000 C   0  0  0  0  0  0  0  0  0  0  0  0
    7.1620   -0.2067    0.0000 C   0  0  0  0  0  0  0  0  0  0  0  0
    6.4458   -0.6202    0.0000 C   0  0  0  0  0  0  0  0  0  0  0  0
    6.4458   -1.4472    0.0000 O   0  0  0  0  0  0  0  0  0  0  0  0
    5.7296   -0.2067    0.0000 N   0  0  0  0  0  0  0  0  0  0  0  0
    5.0134   -0.6202    0.0000 C   0  0  0  0  0  0  0  0  0  0  0  0
    5.0134   -1.4472    0.0000 C   0  0  0  0  0  0  0  0  0  0  0  0
    4.2972   -1.8607    0.0000 C   0  0  0  0  0  0  0  0  0  0  0  0
    3.5810   -1.4472    0.0000 C   0  0  0  0  0  0  0  0  0  0  0  0
    2.8648   -1.8607    0.0000 C   0  0  0  0  0  0  0  0  0  0  0  0
    2.1486   -1.4473    0.0000 N   0  0  0  0  0  0  0  0  0  0  0  0
    1.4324   -1.8608    0.0000 C   0  0  0  0  0  0  0  0  0  0  0  0
    0.7162   -1.4473    0.0000 C   0  0  0  0  0  0  0  0  0  0  0  0
    0.7162   -0.6203    0.0000 N   0  0  0  0  0  0  0  0  0  0  0  0
    0.0000   -0.2068    0.0000 C   0  0  0  0  0  0  0  0  0  0  0  0
    1.4324   -0.2068    0.0000 C   0  0  0  0  0  0  0  0  0  0  0  0
    2.1486   -0.6202    0.0000 C   0  0  0  0  0  0  0  0  0  0  0  0
    3.5810   -0.6202    0.0000 C   0  0  0  0  0  0  0  0  0  0  0  0
    4.2972   -0.2067    0.0000 C   0  0  0  0  0  0  0  0  0  0  0  0
    7.1620    0.6203    0.0000 C   0  0  0  0  0  0  0  0  0  0  0  0
  1  2  1  0  0  0
  2 24  1  0  0  0
  2  3  2  0  0  0
  3  4  1  0  0  0
  4  5  2  0  0  0
  5  6  1  0  0  0
  6  7  1  0  0  0
  7  8  2  0  0  0
  7  9  1  0  0  0
  9 10  1  0  0  0
 10 23  1  0  0  0
 10 11  2  0  0  0
 11 12  1  0  0  0
 12 13  2  0  0  0
 13 14  1  0  0  0
 14 15  1  0  0  0
 15 21  1  0  0  0
 15 16  1  0  0  0
 16 17  1  0  0  0
 17 18  1  0  0  0
 18 19  1  0  0  0
 18 20  1  0  0  0
 20 21  1  0  0  0
 13 22  1  0  0  0
 22 23  2  0  0  0
  6 24  2  0  0  0
M  END
>  <Entry>
307

>  <title>
18-1857

>  <rigid docking scores>
-19.204

>  <InChIKey>
ZZYRCUCGWQLJDZ-UHFFFAOYSA-N

$$$$
atoms 19 bonds 21
dotmatics
mol io
 19 21  0  0  0  0  0  0  0  0999 V2000
    4.4925    2.3580    0.0000 C   0  0  0  0  0  0  0  0  0  0  0  0
    4.4925    1.5310    0.0000 N   0  0  0  0  0  0  0  0  0  0  0  0
    5.2087    1.1175    0.0000 C   0  0  0  0  0  0  0  0  0  0  0  0
    5.2087    0.2905    0.0000 C   0  0  0  0  0  0  0  0  0  0  0  0
    4.4925   -0.1230    0.0000 N   0  0  0  0  0  0  0  0  0  0  0  0
    4.4925   -0.9500    0.0000 C   0  0  0  0  0  0  0  0  0  0  0  0
    3.7763   -1.3635    0.0000 C   0  0  0  0  0  0  0  0  0  0  0  0
    3.6898   -2.1860    0.0000 C   0  0  0  0  0  0  0  0  0  0  0  0
    2.8809   -2.3580    0.0000 O   0  0  0  0  0  0  0  0  0  0  0  0
    2.4674   -1.6418    0.0000 C   0  0  0  0  0  0  0  0  0  0  0  0
    1.6449   -1.5553    0.0000 C   0  0  0  0  0  0  0  0  0  0  0  0
    1.1588   -2.2244    0.0000 C   0  0  0  0  0  0  0  0  0  0  0  0
    0.3364   -2.1379    0.0000 C   0  0  0  0  0  0  0  0  0  0  0  0
    0.0000   -1.3824    0.0000 C   0  0  0  0  0  0  0  0  0  0  0  0
    0.4861   -0.7134    0.0000 C   0  0  0  0  0  0  0  0  0  0  0  0
    1.3086   -0.7998    0.0000 C   0  0  0  0  0  0  0  0  0  0  0  0
    3.0208   -1.0272    0.0000 N   0  0  0  0  0  0  0  0  0  0  0  0
    3.7763    0.2905    0.0000 C   0  0  0  0  0  0  0  0  0  0  0  0
    3.7763    1.1175    0.0000 C   0  0  0  0  0  0  0  0  0  0  0  0
  1  2  1  0  0  0
  2 19  1  0  0  0
  2  3  1  0  0  0
  3  4  1  0  0  0
  4  5  1  0  0  0
  5  6  1  0  0  0
  6  7  1  0  0  0
  7 17  1  0  0  0
  7  8  2  0  0  0
  8  9  1  0  0  0
  9 10  1  0  0  0
 10 11  1  0  0  0
 11 16  1  0  0  0
 11 12  2  0  0  0
 12 13  1  0  0  0
 13 14  2  0  0  0
 14 15  1  0  0  0
 15 16  2  0  0  0
 10 17  2  0  0  0
  5 18  1  0  0  0
 18 19  1  0  0  0
M  END
>  <Entry>
308

>  <title>
18-1861

>  <rigid docking scores>
-15.3698

>  <InChIKey>
SBBFWXSUZGNUDY-UHFFFAOYSA-N

>  <ZINC>
ZINC000061804319

>  <eMolecules>
35683733

>  <Pubchem>
53520273

>  <Mcule>
MCULE-6352230314

>  <MolPort>
MolPort-019-643-126

$$$$
atoms 22 bonds 24
dotmatics
mol io
 22 24  0  0  0  0  0  0  0  0999 V2000
    0.0000    0.1900    0.0000 C   0  0  0  0  0  0  0  0  0  0  0  0
    0.7158    0.6042    0.0000 N   0  0  0  0  0  0  0  0  0  0  0  0
    0.7158    1.4324    0.0000 C   0  0  0  0  0  0  0  0  0  0  0  0
    1.4317    1.8465    0.0000 C   0  0  0  0  0  0  0  0  0  0  0  0
    2.1475    1.4324    0.0000 N   0  0  0  0  0  0  0  0  0  0  0  0
    2.9344    1.6868    0.0000 N   0  0  0  0  0  0  0  0  0  0  0  0
    3.4254    1.0183    0.0000 C   0  0  0  0  0  0  0  0  0  0  0  0
    4.2524    1.0183    0.0000 C   0  0  0  0  0  0  0  0  0  0  0  0
    4.6659    0.3021    0.0000 N   0  0  0  0  0  0  0  0  0  0  0  0
    5.4929    0.3021    0.0000 C   0  0  0  0  0  0  0  0  0  0  0  0
    5.9064    1.0183    0.0000 O   0  0  0  0  0  0  0  0  0  0  0  0
    5.9064   -0.4141    0.0000 C   0  0  0  0  0  0  0  0  0  0  0  0
    6.7334   -0.4141    0.0000 C   0  0  0  0  0  0  0  0  0  0  0  0
    7.1469    0.3021    0.0000 C   0  0  0  0  0  0  0  0  0  0  0  0
    7.9739    0.3021    0.0000 C   0  0  0  0  0  0  0  0  0  0  0  0
    8.3874   -0.4141    0.0000 C   0  0  0  0  0  0  0  0  0  0  0  0
    7.9739   -1.1303    0.0000 C   0  0  0  0  0  0  0  0  0  0  0  0
    8.3874   -1.8465    0.0000 O   0  0  0  0  0  0  0  0  0  0  0  0
    7.1469   -1.1303    0.0000 C   0  0  0  0  0  0  0  0  0  0  0  0
    2.9344    0.3498    0.0000 C   0  0  0  0  0  0  0  0  0  0  0  0
    2.1475    0.6042    0.0000 C   0  0  0  0  0  0  0  0  0  0  0  0
    1.4317    0.1900    0.0000 C   0  0  0  0  0  0  0  0  0  0  0  0
  1  2  1  0  0  0
  2 22  1  0  0  0
  2  3  1  0  0  0
  3  4  1  0  0  0
  4  5  1  0  0  0
  5 21  1  0  0  0
  5  6  1  0  0  0
  6  7  2  0  0  0
  7  8  1  0  0  0
  8  9  1  0  0  0
  9 10  1  0  0  0
 10 11  2  0  0  0
 10 12  1  0  0  0
 12 13  1  0  0  0
 13 19  1  0  0  0
 13 14  2  0  0  0
 14 15  1  0  0  0
 15 16  2  0  0  0
 16 17  1  0  0  0
 17 18  1  0  0  0
 17 19  2  0  0  0
  7 20  1  0  0  0
 20 21  2  0  0  0
 21 22  1  0  0  0
M  END
>  <Entry>
309

>  <title>
18-1948

>  <rigid docking scores>
-15.3191

>  <InChIKey>
YWJDSXQWHYXJEN-UHFFFAOYSA-N

$$$$
atoms 24 bonds 26
dotmatics
mol io
 24 26  0  0  0  0  0  0  0  0999 V2000
    7.8782    1.2405    0.0000 C   0  0  0  0  0  0  0  0  0  0  0  0
    7.8782    0.4135    0.0000 C   0  0  0  0  0  0  0  0  0  0  0  0
    8.5944    0.0000    0.0000 C   0  0  0  0  0  0  0  0  0  0  0  0
    8.5944   -0.8270    0.0000 C   0  0  0  0  0  0  0  0  0  0  0  0
    7.8782   -1.2405    0.0000 C   0  0  0  0  0  0  0  0  0  0  0  0
    7.1620   -0.8270    0.0000 C   0  0  0  0  0  0  0  0  0  0  0  0
    7.1620    0.0000    0.0000 C   0  0  0  0  0  0  0  0  0  0  0  0
    6.4458    0.4135    0.0000 N   0  0  0  0  0  0  0  0  0  0  0  0
    5.7296    0.0000    0.0000 C   0  0  0  0  0  0  0  0  0  0  0  0
    5.7296   -0.8270    0.0000 O   0  0  0  0  0  0  0  0  0  0  0  0
    5.0134    0.4135    0.0000 C   0  0  0  0  0  0  0  0  0  0  0  0
    4.2972    0.0000    0.0000 N   0  0  0  0  0  0  0  0  0  0  0  0
    3.5810    0.4135    0.0000 C   0  0  0  0  0  0  0  0  0  0  0  0
    2.8648    0.0000    0.0000 C   0  0  0  0  0  0  0  0  0  0  0  0
    2.8648   -0.8270    0.0000 N   0  0  0  0  0  0  0  0  0  0  0  0
    2.1486   -1.2405    0.0000 C   0  0  0  0  0  0  0  0  0  0  0  0
    1.4324   -0.8270    0.0000 C   0  0  0  0  0  0  0  0  0  0  0  0
    1.4324   -0.0000    0.0000 C   0  0  0  0  0  0  0  0  0  0  0  0
    0.7162    0.4135    0.0000 C   0  0  0  0  0  0  0  0  0  0  0  0
    0.0000   -0.0000    0.0000 C   0  0  0  0  0  0  0  0  0  0  0  0
    0.0000   -0.8270    0.0000 C   0  0  0  0  0  0  0  0  0  0  0  0
    0.7162   -1.2405    0.0000 C   0  0  0  0  0  0  0  0  0  0  0  0
    3.5810   -1.2405    0.0000 C   0  0  0  0  0  0  0  0  0  0  0  0
    4.2972   -0.8270    0.0000 C   0  0  0  0  0  0  0  0  0  0  0  0
  1  2  1  0  0  0
  2  7  1  0  0  0
  2  3  2  0  0  0
  3  4  1  0  0  0
  4  5  2  0  0  0
  5  6  1  0  0  0
  6  7  2  0  0  0
  7  8  1  0  0  0
  8  9  1  0  0  0
  9 10  2  0  0  0
  9 11  1  0  0  0
 11 12  1  0  0  0
 12 24  1  0  0  0
 12 13  1  0  0  0
 13 14  1  0  0  0
 14 15  1  0  0  0
 15 16  1  0  0  0
 16 17  1  0  0  0
 17 22  1  0  0  0
 17 18  2  0  0  0
 18 19  1  0  0  0
 19 20  2  0  0  0
 20 21  1  0  0  0
 21 22  2  0  0  0
 15 23  1  0  0  0
 23 24  1  0  0  0
M  END
>  <Entry>
310

>  <title>
18-2007

>  <rigid docking scores>
-15.5481

>  <InChIKey>
AAJZGIJQXHXUCX-UHFFFAOYSA-N

>  <ChEMBL>
CHEMBL1546525

>  <ZINC>
ZINC000020512510

>  <eMolecules>
2271329

>  <Pubchem>
2243596

>  <Mcule>
MCULE-5640625187

>  <MolPort>
MolPort-002-099-360

$$$$
atoms 20 bonds 22
dotmatics
mol io
 20 22  0  0  0  0  0  0  0  0999 V2000
    7.4492   -0.7160    0.0000 O   0  0  0  0  0  0  0  0  0  0  0  0
    6.6222   -0.7160    0.0000 C   0  0  0  0  0  0  0  0  0  0  0  0
    6.2087   -1.4322    0.0000 C   0  0  0  0  0  0  0  0  0  0  0  0
    5.3817   -1.4322    0.0000 C   0  0  0  0  0  0  0  0  0  0  0  0
    4.9682   -0.7160    0.0000 C   0  0  0  0  0  0  0  0  0  0  0  0
    5.3817    0.0002    0.0000 C   0  0  0  0  0  0  0  0  0  0  0  0
    4.9682    0.7164    0.0000 C   0  0  0  0  0  0  0  0  0  0  0  0
    4.1412    0.7164    0.0000 N   0  0  0  0  0  0  0  0  0  0  0  0
    3.7271    0.0005    0.0000 C   0  0  0  0  0  0  0  0  0  0  0  0
    2.8989    0.0005    0.0000 C   0  0  0  0  0  0  0  0  0  0  0  0
    2.4847    0.7164    0.0000 N   0  0  0  0  0  0  0  0  0  0  0  0
    1.6565    0.7164    0.0000 C   0  0  0  0  0  0  0  0  0  0  0  0
    1.2424    0.0005    0.0000 C   0  0  0  0  0  0  0  0  0  0  0  0
    0.4141    0.0005    0.0000 N   0  0  0  0  0  0  0  0  0  0  0  0
    0.0000    0.7164    0.0000 C   0  0  0  0  0  0  0  0  0  0  0  0
    0.4141    1.4322    0.0000 C   0  0  0  0  0  0  0  0  0  0  0  0
    1.2424    1.4322    0.0000 N   0  0  0  0  0  0  0  0  0  0  0  0
    2.8989    1.4322    0.0000 C   0  0  0  0  0  0  0  0  0  0  0  0
    3.7271    1.4322    0.0000 C   0  0  0  0  0  0  0  0  0  0  0  0
    6.2087    0.0002    0.0000 C   0  0  0  0  0  0  0  0  0  0  0  0
  1  2  1  0  0  0
  2 20  1  0  0  0
  2  3  2  0  0  0
  3  4  1  0  0  0
  4  5  2  0  0  0
  5  6  1  0  0  0
  6  7  1  0  0  0
  7  8  1  0  0  0
  8 19  1  0  0  0
  8  9  1  0  0  0
  9 10  1  0  0  0
 10 11  1  0  0  0
 11 12  1  0  0  0
 12 17  1  0  0  0
 12 13  2  0  0  0
 13 14  1  0  0  0
 14 15  2  0  0  0
 15 16  1  0  0  0
 16 17  2  0  0  0
 11 18  1  0  0  0
 18 19  1  0  0  0
  6 20  2  0  0  0
M  END
>  <Entry>
311

>  <title>
18-2623

>  <rigid docking scores>
-15.4869

>  <InChIKey>
CNCZNEYWWATBPM-UHFFFAOYSA-N

$$$$
atoms 19 bonds 20
dotmatics
mol io
 19 20  0  0  0  0  0  0  0  0999 V2000
    0.0000    3.5810    0.0000 C   0  0  0  0  0  0  0  0  0  0  0  0
    0.8270    3.5810    0.0000 C   0  0  0  0  0  0  0  0  0  0  0  0
    1.2405    4.2972    0.0000 C   0  0  0  0  0  0  0  0  0  0  0  0
    2.0675    4.2972    0.0000 C   0  0  0  0  0  0  0  0  0  0  0  0
    2.4810    3.5810    0.0000 C   0  0  0  0  0  0  0  0  0  0  0  0
    2.0675    2.8648    0.0000 C   0  0  0  0  0  0  0  0  0  0  0  0
    1.2405    2.8648    0.0000 C   0  0  0  0  0  0  0  0  0  0  0  0
    0.8270    2.1486    0.0000 C   0  0  0  0  0  0  0  0  0  0  0  0
    1.2405    1.4324    0.0000 O   0  0  0  0  0  0  0  0  0  0  0  0
    0.0000    2.1486    0.0000 N   0  0  0  0  0  0  0  0  0  0  0  0
   -0.4135    1.4324    0.0000 C   0  0  0  0  0  0  0  0  0  0  0  0
    0.0000    0.7162    0.0000 C   0  0  0  0  0  0  0  0  0  0  0  0
   -0.4135    0.0000    0.0000 C   0  0  0  0  0  0  0  0  0  0  0  0
   -1.2405    0.0000    0.0000 C   0  0  0  0  0  0  0  0  0  0  0  0
   -1.6540    0.7162    0.0000 N   0  0  0  0  0  0  0  0  0  0  0  0
   -1.2405    1.4324    0.0000 C   0  0  0  0  0  0  0  0  0  0  0  0
   -1.6540    2.1486    0.0000 C   0  0  0  0  0  0  0  0  0  0  0  0
   -1.2405    2.8648    0.0000 N   0  0  0  0  0  0  0  0  0  0  0  0
   -2.4810    2.1486    0.0000 O   0  0  0  0  0  0  0  0  0  0  0  0
  1  2  1  0  0  0
  2  7  1  0  0  0
  2  3  2  0  0  0
  3  4  1  0  0  0
  4  5  2  0  0  0
  5  6  1  0  0  0
  6  7  2  0  0  0
  7  8  1  0  0  0
  8  9  2  0  0  0
  8 10  1  0  0  0
 10 11  1  0  0  0
 11 16  1  0  0  0
 11 12  2  0  0  0
 12 13  1  0  0  0
 13 14  2  0  0  0
 14 15  1  0  0  0
 15 16  2  0  0  0
 16 17  1  0  0  0
 17 18  1  0  0  0
 17 19  2  0  0  0
M  END
>  <Entry>
312

>  <title>
18-3738

>  <rigid docking scores>
-16.8483

>  <InChIKey>
RKUCQDJDOAUYBF-UHFFFAOYSA-N

$$$$
atoms 21 bonds 23
dotmatics
mol io
 21 23  0  0  0  0  0  0  0  0999 V2000
    7.8627   -1.4324    0.0000 N   0  0  0  0  0  0  0  0  0  0  0  0
    7.4492   -0.7162    0.0000 C   0  0  0  0  0  0  0  0  0  0  0  0
    6.6222   -0.7162    0.0000 C   0  0  0  0  0  0  0  0  0  0  0  0
    6.2081   -1.4320    0.0000 C   0  0  0  0  0  0  0  0  0  0  0  0
    5.3799   -1.4320    0.0000 C   0  0  0  0  0  0  0  0  0  0  0  0
    4.9657   -0.7162    0.0000 C   0  0  0  0  0  0  0  0  0  0  0  0
    4.1375   -0.7162    0.0000 N   0  0  0  0  0  0  0  0  0  0  0  0
    3.7234   -1.4320    0.0000 C   0  0  0  0  0  0  0  0  0  0  0  0
    2.8951   -1.4320    0.0000 C   0  0  0  0  0  0  0  0  0  0  0  0
    2.4810   -0.7162    0.0000 N   0  0  0  0  0  0  0  0  0  0  0  0
    1.6540   -0.7162    0.0000 C   0  0  0  0  0  0  0  0  0  0  0  0
    1.2405    0.0000    0.0000 C   0  0  0  0  0  0  0  0  0  0  0  0
    0.4135    0.0000    0.0000 C   0  0  0  0  0  0  0  0  0  0  0  0
    0.0000    0.7162    0.0000 C   0  0  0  0  0  0  0  0  0  0  0  0
    0.4135    1.4324    0.0000 C   0  0  0  0  0  0  0  0  0  0  0  0
    1.2405    1.4324    0.0000 C   0  0  0  0  0  0  0  0  0  0  0  0
    1.6540    0.7162    0.0000 C   0  0  0  0  0  0  0  0  0  0  0  0
    2.8951   -0.0004    0.0000 C   0  0  0  0  0  0  0  0  0  0  0  0
    3.7234   -0.0004    0.0000 C   0  0  0  0  0  0  0  0  0  0  0  0
    5.3799   -0.0004    0.0000 N   0  0  0  0  0  0  0  0  0  0  0  0
    6.2081   -0.0004    0.0000 C   0  0  0  0  0  0  0  0  0  0  0  0
  1  2  1  0  0  0
  2  3  1  0  0  0
  3 21  1  0  0  0
  3  4  2  0  0  0
  4  5  1  0  0  0
  5  6  2  0  0  0
  6  7  1  0  0  0
  7 19  1  0  0  0
  7  8  1  0  0  0
  8  9  1  0  0  0
  9 10  1  0  0  0
 10 11  1  0  0  0
 11 12  1  0  0  0
 12 17  1  0  0  0
 12 13  2  0  0  0
 13 14  1  0  0  0
 14 15  2  0  0  0
 15 16  1  0  0  0
 16 17  2  0  0  0
 10 18  1  0  0  0
 18 19  1  0  0  0
  6 20  1  0  0  0
 20 21  2  0  0  0
M  END
>  <Entry>
313

>  <title>
18-3939

>  <rigid docking scores>
-16.3327

>  <InChIKey>
FGORNCQKGZUGRJ-UHFFFAOYSA-N

>  <ZINC>
ZINC000035719726

>  <eMolecules>
30420991

>  <Pubchem>
43528558

$$$$
atoms 24 bonds 26
dotmatics
mol io
 24 26  0  0  0  0  0  0  0  0999 V2000
    1.2424    1.7882    0.0000 C   0  0  0  0  0  0  0  0  0  0  0  0
    2.0694    1.7889    0.0000 C   0  0  0  0  0  0  0  0  0  0  0  0
    2.4822    2.5054    0.0000 C   0  0  0  0  0  0  0  0  0  0  0  0
    3.3092    2.5062    0.0000 N   0  0  0  0  0  0  0  0  0  0  0  0
    3.7234    1.7903    0.0000 C   0  0  0  0  0  0  0  0  0  0  0  0
    3.3105    1.0738    0.0000 C   0  0  0  0  0  0  0  0  0  0  0  0
    3.7246    0.3579    0.0000 C   0  0  0  0  0  0  0  0  0  0  0  0
    4.5516    0.3586    0.0000 O   0  0  0  0  0  0  0  0  0  0  0  0
    3.3117   -0.3586    0.0000 N   0  0  0  0  0  0  0  0  0  0  0  0
    3.7259   -1.0745    0.0000 C   0  0  0  0  0  0  0  0  0  0  0  0
    4.5541   -1.0745    0.0000 C   0  0  0  0  0  0  0  0  0  0  0  0
    4.9682   -1.7903    0.0000 C   0  0  0  0  0  0  0  0  0  0  0  0
    5.7952   -1.7903    0.0000 C   0  0  0  0  0  0  0  0  0  0  0  0
    4.5541   -2.5062    0.0000 C   0  0  0  0  0  0  0  0  0  0  0  0
    3.7259   -2.5062    0.0000 C   0  0  0  0  0  0  0  0  0  0  0  0
    3.3117   -1.7903    0.0000 C   0  0  0  0  0  0  0  0  0  0  0  0
    2.4835   -1.7903    0.0000 N   0  0  0  0  0  0  0  0  0  0  0  0
    2.0694   -2.5062    0.0000 C   0  0  0  0  0  0  0  0  0  0  0  0
    1.2411   -2.5062    0.0000 C   0  0  0  0  0  0  0  0  0  0  0  0
    0.8270   -1.7903    0.0000 N   0  0  0  0  0  0  0  0  0  0  0  0
    0.0000   -1.7903    0.0000 C   0  0  0  0  0  0  0  0  0  0  0  0
    1.2411   -1.0745    0.0000 C   0  0  0  0  0  0  0  0  0  0  0  0
    2.0694   -1.0745    0.0000 C   0  0  0  0  0  0  0  0  0  0  0  0
    2.4835    1.0730    0.0000 C   0  0  0  0  0  0  0  0  0  0  0  0
  1  2  1  0  0  0
  2 24  1  0  0  0
  2  3  2  0  0  0
  3  4  1  0  0  0
  4  5  2  0  0  0
  5  6  1  0  0  0
  6  7  1  0  0  0
  7  8  2  0  0  0
  7  9  1  0  0  0
  9 10  1  0  0  0
 10 16  1  0  0  0
 10 11  2  0  0  0
 11 12  1  0  0  0
 12 13  1  0  0  0
 12 14  2  0  0  0
 14 15  1  0  0  0
 15 16  2  0  0  0
 16 17  1  0  0  0
 17 23  1  0  0  0
 17 18  1  0  0  0
 18 19  1  0  0  0
 19 20  1  0  0  0
 20 21  1  0  0  0
 20 22  1  0  0  0
 22 23  1  0  0  0
  6 24  2  0  0  0
M  END
>  <Entry>
314

>  <title>
18-4403

>  <rigid docking scores>
-15.403

>  <InChIKey>
JKIINXVYBZHCQW-UHFFFAOYSA-N

$$$$
atoms 18 bonds 19
dotmatics
mol io
 18 19  0  0  0  0  0  0  0  0999 V2000
    4.8899    2.3580    0.0000 C   0  0  0  0  0  0  0  0  0  0  0  0
    4.8899    1.5310    0.0000 C   0  0  0  0  0  0  0  0  0  0  0  0
    5.6061    1.1175    0.0000 O   0  0  0  0  0  0  0  0  0  0  0  0
    4.1737    1.1175    0.0000 N   0  0  0  0  0  0  0  0  0  0  0  0
    4.1737    0.2905    0.0000 C   0  0  0  0  0  0  0  0  0  0  0  0
    4.8899   -0.1230    0.0000 C   0  0  0  0  0  0  0  0  0  0  0  0
    4.8899   -0.9500    0.0000 C   0  0  0  0  0  0  0  0  0  0  0  0
    4.1737   -1.3635    0.0000 C   0  0  0  0  0  0  0  0  0  0  0  0
    3.4575   -0.9500    0.0000 C   0  0  0  0  0  0  0  0  0  0  0  0
    2.7413   -1.3635    0.0000 N   0  0  0  0  0  0  0  0  0  0  0  0
    2.0251   -0.9500    0.0000 C   0  0  0  0  0  0  0  0  0  0  0  0
    2.0251   -0.1230    0.0000 O   0  0  0  0  0  0  0  0  0  0  0  0
    1.3089   -1.3635    0.0000 C   0  0  0  0  0  0  0  0  0  0  0  0
    1.2224   -2.1860    0.0000 C   0  0  0  0  0  0  0  0  0  0  0  0
    0.4135   -2.3580    0.0000 C   0  0  0  0  0  0  0  0  0  0  0  0
    0.0000   -1.6418    0.0000 C   0  0  0  0  0  0  0  0  0  0  0  0
    0.5534   -1.0272    0.0000 S   0  0  0  0  0  0  0  0  0  0  0  0
    3.4575   -0.1230    0.0000 C   0  0  0  0  0  0  0  0  0  0  0  0
  1  2  1  0  0  0
  2  3  2  0  0  0
  2  4  1  0  0  0
  4  5  1  0  0  0
  5 18  1  0  0  0
  5  6  2  0  0  0
  6  7  1  0  0  0
  7  8  2  0  0  0
  8  9  1  0  0  0
  9 10  1  0  0  0
 10 11  1  0  0  0
 11 12  2  0  0  0
 11 13  1  0  0  0
 13 17  1  0  0  0
 13 14  2  0  0  0
 14 15  1  0  0  0
 15 16  2  0  0  0
 16 17  1  0  0  0
  9 18  2  0  0  0
M  END
>  <Entry>
315

>  <title>
18-4587

>  <rigid docking scores>
-15.8307

>  <InChIKey>
LIDSZOZNZQHXRE-UHFFFAOYSA-N

>  <ZINC>
ZINC000000029660

>  <eMolecules>
1222633

>  <Pubchem>
669134

>  <Mcule>
MCULE-6450081139

>  <MolPort>
MolPort-001-030-683

$$$$
atoms 22 bonds 25
dotmatics
mol io
 22 25  0  0  0  0  0  0  0  0999 V2000
    0.0000    1.0340    0.0000 C   0  0  0  0  0  0  0  0  0  0  0  0
    0.0000    0.2058    0.0000 C   0  0  0  0  0  0  0  0  0  0  0  0
    0.7158   -0.2083    0.0000 C   0  0  0  0  0  0  0  0  0  0  0  0
    1.4317    0.2058    0.0000 C   0  0  0  0  0  0  0  0  0  0  0  0
    2.1534   -0.2083    0.0000 C   0  0  0  0  0  0  0  0  0  0  0  0
    2.1594   -1.0353    0.0000 N   0  0  0  0  0  0  0  0  0  0  0  0
    2.8785   -1.4437    0.0000 C   0  0  0  0  0  0  0  0  0  0  0  0
    2.8844   -2.2707    0.0000 C   0  0  0  0  0  0  0  0  0  0  0  0
    2.1712   -2.6893    0.0000 O   0  0  0  0  0  0  0  0  0  0  0  0
    1.4520   -2.2809    0.0000 C   0  0  0  0  0  0  0  0  0  0  0  0
    1.4461   -1.4539    0.0000 C   0  0  0  0  0  0  0  0  0  0  0  0
    2.8693    0.2058    0.0000 N   0  0  0  0  0  0  0  0  0  0  0  0
    2.8693    1.0340    0.0000 C   0  0  0  0  0  0  0  0  0  0  0  0
    3.5851    1.4482    0.0000 N   0  0  0  0  0  0  0  0  0  0  0  0
    3.5844    2.2752    0.0000 C   0  0  0  0  0  0  0  0  0  0  0  0
    4.3003    2.6893    0.0000 C   0  0  0  0  0  0  0  0  0  0  0  0
    5.0168    2.2764    0.0000 O   0  0  0  0  0  0  0  0  0  0  0  0
    5.0175    1.4494    0.0000 C   0  0  0  0  0  0  0  0  0  0  0  0
    4.3017    1.0353    0.0000 C   0  0  0  0  0  0  0  0  0  0  0  0
    2.1534    1.4482    0.0000 N   0  0  0  0  0  0  0  0  0  0  0  0
    1.4317    1.0340    0.0000 C   0  0  0  0  0  0  0  0  0  0  0  0
    0.7158    1.4482    0.0000 C   0  0  0  0  0  0  0  0  0  0  0  0
  1 22  1  0  0  0
  1  2  2  0  0  0
  2  3  1  0  0  0
  3  4  2  0  0  0
  4 21  1  0  0  0
  4  5  1  0  0  0
  5  6  1  0  0  0
  6 11  1  0  0  0
  6  7  1  0  0  0
  7  8  1  0  0  0
  8  9  1  0  0  0
  9 10  1  0  0  0
 10 11  1  0  0  0
  5 12  2  0  0  0
 12 13  1  0  0  0
 13 14  1  0  0  0
 14 19  1  0  0  0
 14 15  1  0  0  0
 15 16  1  0  0  0
 16 17  1  0  0  0
 17 18  1  0  0  0
 18 19  1  0  0  0
 13 20  2  0  0  0
 20 21  1  0  0  0
 21 22  2  0  0  0
M  END
>  <Entry>
316

>  <title>
18-5317

>  <rigid docking scores>
-15.444

>  <InChIKey>
WHNJDAQFFZAULV-UHFFFAOYSA-N

>  <ChEMBL>
CHEMBL1626237

>  <ZINC>
ZINC000000280892

>  <eMolecules>
1429554

>  <SureChEMBL Patents>
SCHEMBL11738520

>  <Pubchem>
622868

>  <Mcule>
MCULE-7176355397

>  <MolPort>
MolPort-001-585-405

$$$$
atoms 19 bonds 21
dotmatics
mol io
 19 21  0  0  0  0  0  0  0  0999 V2000
    5.0359   -2.0534    0.0000 C   0  0  0  0  0  0  0  0  0  0  0  0
    4.3168   -1.6450    0.0000 N   0  0  0  0  0  0  0  0  0  0  0  0
    4.3109   -0.8180    0.0000 C   0  0  0  0  0  0  0  0  0  0  0  0
    3.5917   -0.4096    0.0000 C   0  0  0  0  0  0  0  0  0  0  0  0
    2.8785   -0.8282    0.0000 N   0  0  0  0  0  0  0  0  0  0  0  0
    2.1594   -0.4199    0.0000 C   0  0  0  0  0  0  0  0  0  0  0  0
    2.1534    0.4071    0.0000 C   0  0  0  0  0  0  0  0  0  0  0  0
    2.8693    0.8212    0.0000 C   0  0  0  0  0  0  0  0  0  0  0  0
    2.8693    1.6495    0.0000 C   0  0  0  0  0  0  0  0  0  0  0  0
    3.5851    2.0636    0.0000 O   0  0  0  0  0  0  0  0  0  0  0  0
    2.1534    2.0636    0.0000 N   0  0  0  0  0  0  0  0  0  0  0  0
    1.4317    1.6495    0.0000 C   0  0  0  0  0  0  0  0  0  0  0  0
    0.7158    2.0636    0.0000 C   0  0  0  0  0  0  0  0  0  0  0  0
    0.0000    1.6495    0.0000 C   0  0  0  0  0  0  0  0  0  0  0  0
    0.0000    0.8212    0.0000 C   0  0  0  0  0  0  0  0  0  0  0  0
    0.7158    0.4071    0.0000 C   0  0  0  0  0  0  0  0  0  0  0  0
    1.4317    0.8212    0.0000 C   0  0  0  0  0  0  0  0  0  0  0  0
    2.8844   -1.6552    0.0000 C   0  0  0  0  0  0  0  0  0  0  0  0
    3.6035   -2.0636    0.0000 C   0  0  0  0  0  0  0  0  0  0  0  0
  1  2  1  0  0  0
  2 19  1  0  0  0
  2  3  1  0  0  0
  3  4  1  0  0  0
  4  5  1  0  0  0
  5  6  1  0  0  0
  6  7  1  0  0  0
  7 17  1  0  0  0
  7  8  2  0  0  0
  8  9  1  0  0  0
  9 10  2  0  0  0
  9 11  1  0  0  0
 11 12  1  0  0  0
 12 17  1  0  0  0
 12 13  2  0  0  0
 13 14  1  0  0  0
 14 15  2  0  0  0
 15 16  1  0  0  0
 16 17  2  0  0  0
  5 18  1  0  0  0
 18 19  1  0  0  0
M  END
>  <Entry>
317

>  <title>
18-5471

>  <rigid docking scores>
-16.6642

>  <InChIKey>
HZLRGCSDUWHDLI-UHFFFAOYSA-N

>  <ZINC>
ZINC000035323116

>  <Pubchem>
53416091

$$$$
atoms 20 bonds 22
dotmatics
mol io
 20 22  0  0  0  0  0  0  0  0999 V2000
    3.5851   -2.0687    0.0000 O   0  0  0  0  0  0  0  0  0  0  0  0
    2.8693   -1.6546    0.0000 C   0  0  0  0  0  0  0  0  0  0  0  0
    2.8693   -0.8263    0.0000 C   0  0  0  0  0  0  0  0  0  0  0  0
    2.1534   -0.4122    0.0000 N   0  0  0  0  0  0  0  0  0  0  0  0
    2.1594    0.4148    0.0000 C   0  0  0  0  0  0  0  0  0  0  0  0
    1.4461    0.8334    0.0000 O   0  0  0  0  0  0  0  0  0  0  0  0
    2.8785    0.8231    0.0000 C   0  0  0  0  0  0  0  0  0  0  0  0
    3.5917    0.4045    0.0000 C   0  0  0  0  0  0  0  0  0  0  0  0
    4.3109    0.8129    0.0000 C   0  0  0  0  0  0  0  0  0  0  0  0
    4.3168    1.6399    0.0000 C   0  0  0  0  0  0  0  0  0  0  0  0
    3.6035    2.0585    0.0000 C   0  0  0  0  0  0  0  0  0  0  0  0
    2.8844    1.6501    0.0000 C   0  0  0  0  0  0  0  0  0  0  0  0
    2.1712    2.0687    0.0000 F   0  0  0  0  0  0  0  0  0  0  0  0
    1.4317   -0.8263    0.0000 C   0  0  0  0  0  0  0  0  0  0  0  0
    0.7158   -0.4122    0.0000 C   0  0  0  0  0  0  0  0  0  0  0  0
    0.0000   -0.8263    0.0000 C   0  0  0  0  0  0  0  0  0  0  0  0
    0.0000   -1.6546    0.0000 C   0  0  0  0  0  0  0  0  0  0  0  0
    0.7158   -2.0687    0.0000 C   0  0  0  0  0  0  0  0  0  0  0  0
    1.4317   -1.6546    0.0000 C   0  0  0  0  0  0  0  0  0  0  0  0
    2.1534   -2.0687    0.0000 N   0  0  0  0  0  0  0  0  0  0  0  0
  1  2  2  0  0  0
  2 20  1  0  0  0
  2  3  1  0  0  0
  3  4  1  0  0  0
  4  5  1  0  0  0
  5  6  2  0  0  0
  5  7  1  0  0  0
  7 12  1  0  0  0
  7  8  2  0  0  0
  8  9  1  0  0  0
  9 10  2  0  0  0
 10 11  1  0  0  0
 11 12  2  0  0  0
 12 13  1  0  0  0
  4 14  1  0  0  0
 14 19  1  0  0  0
 14 15  2  0  0  0
 15 16  1  0  0  0
 16 17  2  0  0  0
 17 18  1  0  0  0
 18 19  2  0  0  0
 19 20  1  0  0  0
M  END
>  <Entry>
318

>  <title>
18-5696

>  <rigid docking scores>
-15.5847

>  <InChIKey>
GGICAAJRUBPJLE-UHFFFAOYSA-N

>  <ChEMBL>
CHEMBL1423588

>  <ZINC>
ZINC000002700678

>  <eMolecules>
1523727

>  <Pubchem>
2142321

>  <Mcule>
MCULE-9773338440

>  <MolPort>
MolPort-002-017-959

$$$$
atoms 20 bonds 22
dotmatics
mol io
 20 22  0  0  0  0  0  0  0  0999 V2000
   -1.0075    2.5860    0.0000 C   0  0  0  0  0  0  0  0  0  0  0  0
   -0.1805    2.5860    0.0000 C   0  0  0  0  0  0  0  0  0  0  0  0
    0.3056    3.2550    0.0000 O   0  0  0  0  0  0  0  0  0  0  0  0
    1.0921    2.9995    0.0000 C   0  0  0  0  0  0  0  0  0  0  0  0
    1.7611    3.4856    0.0000 C   0  0  0  0  0  0  0  0  0  0  0  0
    1.6747    4.3081    0.0000 C   0  0  0  0  0  0  0  0  0  0  0  0
    2.3438    4.7942    0.0000 C   0  0  0  0  0  0  0  0  0  0  0  0
    3.0993    4.4578    0.0000 C   0  0  0  0  0  0  0  0  0  0  0  0
    3.1857    3.6353    0.0000 C   0  0  0  0  0  0  0  0  0  0  0  0
    2.5166    3.1492    0.0000 C   0  0  0  0  0  0  0  0  0  0  0  0
    1.0921    2.1725    0.0000 N   0  0  0  0  0  0  0  0  0  0  0  0
    0.3056    1.9169    0.0000 C   0  0  0  0  0  0  0  0  0  0  0  0
    0.0500    1.1304    0.0000 C   0  0  0  0  0  0  0  0  0  0  0  0
   -0.7589    0.9585    0.0000 N   0  0  0  0  0  0  0  0  0  0  0  0
   -1.0145    0.1719    0.0000 C   0  0  0  0  0  0  0  0  0  0  0  0
   -1.8234    0.0000    0.0000 C   0  0  0  0  0  0  0  0  0  0  0  0
   -2.3768    0.6146    0.0000 N   0  0  0  0  0  0  0  0  0  0  0  0
   -3.1857    0.4426    0.0000 C   0  0  0  0  0  0  0  0  0  0  0  0
   -2.1212    1.4011    0.0000 C   0  0  0  0  0  0  0  0  0  0  0  0
   -1.3123    1.5730    0.0000 C   0  0  0  0  0  0  0  0  0  0  0  0
  1  2  1  0  0  0
  2 12  2  0  0  0
  2  3  1  0  0  0
  3  4  1  0  0  0
  4  5  1  0  0  0
  5 10  1  0  0  0
  5  6  2  0  0  0
  6  7  1  0  0  0
  7  8  2  0  0  0
  8  9  1  0  0  0
  9 10  2  0  0  0
  4 11  2  0  0  0
 11 12  1  0  0  0
 12 13  1  0  0  0
 13 14  1  0  0  0
 14 20  1  0  0  0
 14 15  1  0  0  0
 15 16  1  0  0  0
 16 17  1  0  0  0
 17 18  1  0  0  0
 17 19  1  0  0  0
 19 20  1  0  0  0
M  END
>  <Entry>
319

>  <title>
18-5912

>  <rigid docking scores>
-16.5332

>  <InChIKey>
ZYJIMGKHCRISMH-UHFFFAOYSA-N

$$$$
atoms 18 bonds 19
dotmatics
mol io
 18 19  0  0  0  0  0  0  0  0999 V2000
   -0.2068    2.1486    0.0000 O   0  0  0  0  0  0  0  0  0  0  0  0
   -0.6202    1.4324    0.0000 C   0  0  0  0  0  0  0  0  0  0  0  0
   -0.2068    0.7162    0.0000 N   0  0  0  0  0  0  0  0  0  0  0  0
    0.6202    0.7162    0.0000 C   0  0  0  0  0  0  0  0  0  0  0  0
    1.0338    1.4324    0.0000 C   0  0  0  0  0  0  0  0  0  0  0  0
    1.8607    1.4324    0.0000 C   0  0  0  0  0  0  0  0  0  0  0  0
    2.2743    0.7162    0.0000 C   0  0  0  0  0  0  0  0  0  0  0  0
    3.1012    0.7162    0.0000 Cl  0  0  0  0  0  0  0  0  0  0  0  0
    1.8607    0.0000    0.0000 C   0  0  0  0  0  0  0  0  0  0  0  0
    1.0338    0.0000    0.0000 C   0  0  0  0  0  0  0  0  0  0  0  0
   -1.4473    1.4324    0.0000 C   0  0  0  0  0  0  0  0  0  0  0  0
   -1.8607    0.7162    0.0000 C   0  0  0  0  0  0  0  0  0  0  0  0
   -2.6878    0.7162    0.0000 C   0  0  0  0  0  0  0  0  0  0  0  0
   -3.1012    0.0000    0.0000 Cl  0  0  0  0  0  0  0  0  0  0  0  0
   -3.1012    1.4324    0.0000 C   0  0  0  0  0  0  0  0  0  0  0  0
   -2.6878    2.1486    0.0000 N   0  0  0  0  0  0  0  0  0  0  0  0
   -1.8607    2.1486    0.0000 C   0  0  0  0  0  0  0  0  0  0  0  0
   -1.4473    2.8648    0.0000 O   0  0  0  0  0  0  0  0  0  0  0  0
  1  2  2  0  0  0
  2  3  1  0  0  0
  3  4  1  0  0  0
  4 10  1  0  0  0
  4  5  2  0  0  0
  5  6  1  0  0  0
  6  7  2  0  0  0
  7  8  1  0  0  0
  7  9  1  0  0  0
  9 10  2  0  0  0
  2 11  1  0  0  0
 11 17  1  0  0  0
 11 12  2  0  0  0
 12 13  1  0  0  0
 13 14  1  0  0  0
 13 15  2  0  0  0
 15 16  1  0  0  0
 16 17  1  0  0  0
 17 18  2  0  0  0
M  END
>  <Entry>
320

>  <title>
18-6221

>  <rigid docking scores>
-15.8014

>  <InChIKey>
GOEUHHOSORZJRI-UHFFFAOYSA-N

>  <Pubchem>
110858960

$$$$
atoms 18 bonds 19
dotmatics
mol io
 18 19  0  0  0  0  0  0  0  0999 V2000
    4.8899    1.5986    0.0000 C   0  0  0  0  0  0  0  0  0  0  0  0
    4.1737    1.1851    0.0000 O   0  0  0  0  0  0  0  0  0  0  0  0
    4.1737    0.3581    0.0000 C   0  0  0  0  0  0  0  0  0  0  0  0
    4.8899   -0.0554    0.0000 C   0  0  0  0  0  0  0  0  0  0  0  0
    4.8899   -0.8824    0.0000 C   0  0  0  0  0  0  0  0  0  0  0  0
    5.6061   -1.2959    0.0000 C   0  0  0  0  0  0  0  0  0  0  0  0
    4.1737   -1.2959    0.0000 C   0  0  0  0  0  0  0  0  0  0  0  0
    3.4575   -0.8824    0.0000 C   0  0  0  0  0  0  0  0  0  0  0  0
    2.7413   -1.2959    0.0000 N   0  0  0  0  0  0  0  0  0  0  0  0
    2.0251   -0.8824    0.0000 S   0  0  0  0  0  0  0  0  0  0  0  0
    1.6116   -1.5986    0.0000 O   0  0  0  0  0  0  0  0  0  0  0  0
    2.4386   -0.1662    0.0000 O   0  0  0  0  0  0  0  0  0  0  0  0
    1.3089   -0.4689    0.0000 C   0  0  0  0  0  0  0  0  0  0  0  0
    0.5534   -0.8053    0.0000 C   0  0  0  0  0  0  0  0  0  0  0  0
    0.0000   -0.1907    0.0000 C   0  0  0  0  0  0  0  0  0  0  0  0
    0.4135    0.5255    0.0000 C   0  0  0  0  0  0  0  0  0  0  0  0
    1.2224    0.3536    0.0000 S   0  0  0  0  0  0  0  0  0  0  0  0
    3.4575   -0.0554    0.0000 C   0  0  0  0  0  0  0  0  0  0  0  0
  1  2  1  0  0  0
  2  3  1  0  0  0
  3 18  1  0  0  0
  3  4  2  0  0  0
  4  5  1  0  0  0
  5  6  1  0  0  0
  5  7  2  0  0  0
  7  8  1  0  0  0
  8  9  1  0  0  0
  9 10  1  0  0  0
 10 11  2  0  0  0
 10 12  2  0  0  0
 10 13  1  0  0  0
 13 17  1  0  0  0
 13 14  2  0  0  0
 14 15  1  0  0  0
 15 16  2  0  0  0
 16 17  1  0  0  0
  8 18  2  0  0  0
M  END
>  <Entry>
321

>  <title>
18-6646

>  <rigid docking scores>
-16.1454

>  <InChIKey>
CSJVMHWCAFVPHI-UHFFFAOYSA-N

$$$$
atoms 20 bonds 22
dotmatics
mol io
 20 22  0  0  0  0  0  0  0  0999 V2000
    0.0000    2.4822    0.0000 C   0  0  0  0  0  0  0  0  0  0  0  0
    0.7162    2.0687    0.0000 C   0  0  0  0  0  0  0  0  0  0  0  0
    1.4324    2.4822    0.0000 C   0  0  0  0  0  0  0  0  0  0  0  0
    2.1486    2.0687    0.0000 C   0  0  0  0  0  0  0  0  0  0  0  0
    2.1486    1.2417    0.0000 C   0  0  0  0  0  0  0  0  0  0  0  0
    2.8648    0.8282    0.0000 N   0  0  0  0  0  0  0  0  0  0  0  0
    2.8648    0.0012    0.0000 S   0  0  0  0  0  0  0  0  0  0  0  0
    3.6918    0.0012    0.0000 O   0  0  0  0  0  0  0  0  0  0  0  0
    2.0378    0.0012    0.0000 O   0  0  0  0  0  0  0  0  0  0  0  0
    2.8648   -0.8258    0.0000 C   0  0  0  0  0  0  0  0  0  0  0  0
    2.1490   -1.2399    0.0000 C   0  0  0  0  0  0  0  0  0  0  0  0
    2.1490   -2.0681    0.0000 C   0  0  0  0  0  0  0  0  0  0  0  0
    2.8648   -2.4822    0.0000 C   0  0  0  0  0  0  0  0  0  0  0  0
    3.5807   -2.0681    0.0000 C   0  0  0  0  0  0  0  0  0  0  0  0
    4.3675   -2.3225    0.0000 N   0  0  0  0  0  0  0  0  0  0  0  0
    4.8585   -1.6540    0.0000 S   0  0  0  0  0  0  0  0  0  0  0  0
    4.3675   -0.9855    0.0000 N   0  0  0  0  0  0  0  0  0  0  0  0
    3.5807   -1.2399    0.0000 C   0  0  0  0  0  0  0  0  0  0  0  0
    1.4324    0.8282    0.0000 C   0  0  0  0  0  0  0  0  0  0  0  0
    0.7162    1.2417    0.0000 C   0  0  0  0  0  0  0  0  0  0  0  0
  1  2  1  0  0  0
  2 20  1  0  0  0
  2  3  2  0  0  0
  3  4  1  0  0  0
  4  5  2  0  0  0
  5  6  1  0  0  0
  6  7  1  0  0  0
  7  8  2  0  0  0
  7  9  2  0  0  0
  7 10  1  0  0  0
 10 18  1  0  0  0
 10 11  2  0  0  0
 11 12  1  0  0  0
 12 13  2  0  0  0
 13 14  1  0  0  0
 14 18  1  0  0  0
 14 15  2  0  0  0
 15 16  1  0  0  0
 16 17  1  0  0  0
 17 18  2  0  0  0
  5 19  1  0  0  0
 19 20  2  0  0  0
M  END
>  <Entry>
322

>  <title>
18-7428

>  <rigid docking scores>
-15.4252

>  <InChIKey>
YRKOLCUABJBOOC-UHFFFAOYSA-N

>  <ChEMBL>
CHEMBL1429233

>  <ZINC>
ZINC000000549643

>  <eMolecules>
4304312

>  <Pubchem>
949019

>  <Mcule>
MCULE-9185690435

>  <MolPort>
MolPort-002-578-857

$$$$
atoms 23 bonds 25
dotmatics
mol io
 23 25  0  0  0  0  0  0  0  0999 V2000
    2.9014    0.0000    0.0000 O   0  0  0  0  0  0  0  0  0  0  0  0
    3.7284    0.0007    0.0000 C   0  0  0  0  0  0  0  0  0  0  0  0
    4.1412    0.7173    0.0000 C   0  0  0  0  0  0  0  0  0  0  0  0
    3.7271    1.4331    0.0000 N   0  0  0  0  0  0  0  0  0  0  0  0
    2.8989    1.4331    0.0000 N   0  0  0  0  0  0  0  0  0  0  0  0
    2.4847    2.1490    0.0000 C   0  0  0  0  0  0  0  0  0  0  0  0
    1.6565    2.1490    0.0000 C   0  0  0  0  0  0  0  0  0  0  0  0
    1.2424    1.4331    0.0000 C   0  0  0  0  0  0  0  0  0  0  0  0
    0.4141    1.4331    0.0000 C   0  0  0  0  0  0  0  0  0  0  0  0
    0.0000    2.1490    0.0000 C   0  0  0  0  0  0  0  0  0  0  0  0
    0.4141    2.8648    0.0000 C   0  0  0  0  0  0  0  0  0  0  0  0
    1.2424    2.8648    0.0000 C   0  0  0  0  0  0  0  0  0  0  0  0
    2.8989    2.8648    0.0000 C   0  0  0  0  0  0  0  0  0  0  0  0
    3.7271    2.8648    0.0000 C   0  0  0  0  0  0  0  0  0  0  0  0
    4.1412    2.1490    0.0000 C   0  0  0  0  0  0  0  0  0  0  0  0
    4.9682    2.1490    0.0000 O   0  0  0  0  0  0  0  0  0  0  0  0
    4.1425   -0.7151    0.0000 N   0  0  0  0  0  0  0  0  0  0  0  0
    3.7296   -1.4317    0.0000 C   0  0  0  0  0  0  0  0  0  0  0  0
    4.1437   -2.1475    0.0000 C   0  0  0  0  0  0  0  0  0  0  0  0
    3.7309   -2.8641    0.0000 C   0  0  0  0  0  0  0  0  0  0  0  0
    2.9039   -2.8648    0.0000 C   0  0  0  0  0  0  0  0  0  0  0  0
    2.4897   -2.1490    0.0000 C   0  0  0  0  0  0  0  0  0  0  0  0
    2.9026   -1.4324    0.0000 C   0  0  0  0  0  0  0  0  0  0  0  0
  1  2  2  0  0  0
  2  3  1  0  0  0
  3  4  1  0  0  0
  4 15  1  0  0  0
  4  5  1  0  0  0
  5  6  2  0  0  0
  6  7  1  0  0  0
  7 12  1  0  0  0
  7  8  2  0  0  0
  8  9  1  0  0  0
  9 10  2  0  0  0
 10 11  1  0  0  0
 11 12  2  0  0  0
  6 13  1  0  0  0
 13 14  2  0  0  0
 14 15  1  0  0  0
 15 16  2  0  0  0
  2 17  1  0  0  0
 17 18  1  0  0  0
 18 23  1  0  0  0
 18 19  2  0  0  0
 19 20  1  0  0  0
 20 21  2  0  0  0
 21 22  1  0  0  0
 22 23  2  0  0  0
M  END
>  <Entry>
323

>  <title>
2-7185

>  <rigid docking scores>
-15.5794

>  <InChIKey>
RMEQAUDTLRXOHX-UHFFFAOYSA-N

>  <ZINC>
ZINC000010131700

>  <eMolecules>
31286053

>  <Pubchem>
44005994

>  <Mcule>
MCULE-3472018512

>  <MolPort>
MolPort-003-571-591

$$$$
atoms 22 bonds 24
dotmatics
mol io
 22 24  0  0  0  0  0  0  0  0999 V2000
    0.7073    2.8900    0.0000 C   0  0  0  0  0  0  0  0  0  0  0  0
    0.7132    2.0630    0.0000 N   0  0  0  0  0  0  0  0  0  0  0  0
    0.0000    1.6444    0.0000 C   0  0  0  0  0  0  0  0  0  0  0  0
    1.4324    1.6546    0.0000 C   0  0  0  0  0  0  0  0  0  0  0  0
    1.4383    0.8276    0.0000 C   0  0  0  0  0  0  0  0  0  0  0  0
    2.1574    0.4193    0.0000 N   0  0  0  0  0  0  0  0  0  0  0  0
    2.1633   -0.4077    0.0000 C   0  0  0  0  0  0  0  0  0  0  0  0
    1.4480   -0.8215    0.0000 C   0  0  0  0  0  0  0  0  0  0  0  0
    1.4480   -1.6492    0.0000 C   0  0  0  0  0  0  0  0  0  0  0  0
    2.1633   -2.0630    0.0000 C   0  0  0  0  0  0  0  0  0  0  0  0
    2.8845   -1.6492    0.0000 C   0  0  0  0  0  0  0  0  0  0  0  0
    2.8845   -0.8215    0.0000 C   0  0  0  0  0  0  0  0  0  0  0  0
    3.5998   -0.4077    0.0000 C   0  0  0  0  0  0  0  0  0  0  0  0
    3.5998    0.4193    0.0000 O   0  0  0  0  0  0  0  0  0  0  0  0
    4.3151   -0.8215    0.0000 C   0  0  0  0  0  0  0  0  0  0  0  0
    5.0304   -0.4077    0.0000 C   0  0  0  0  0  0  0  0  0  0  0  0
    5.7517   -0.8215    0.0000 C   0  0  0  0  0  0  0  0  0  0  0  0
    5.7517   -1.6492    0.0000 C   0  0  0  0  0  0  0  0  0  0  0  0
    5.0304   -2.0630    0.0000 C   0  0  0  0  0  0  0  0  0  0  0  0
    4.3151   -1.6492    0.0000 C   0  0  0  0  0  0  0  0  0  0  0  0
    3.5998   -2.0630    0.0000 C   0  0  0  0  0  0  0  0  0  0  0  0
    3.5998   -2.8900    0.0000 O   0  0  0  0  0  0  0  0  0  0  0  0
  1  2  1  0  0  0
  2  3  1  0  0  0
  2  4  1  0  0  0
  4  5  1  0  0  0
  5  6  1  0  0  0
  6  7  1  0  0  0
  7 12  1  0  0  0
  7  8  2  0  0  0
  8  9  1  0  0  0
  9 10  2  0  0  0
 10 11  1  0  0  0
 11 21  1  0  0  0
 11 12  2  0  0  0
 12 13  1  0  0  0
 13 14  2  0  0  0
 13 15  1  0  0  0
 15 20  1  0  0  0
 15 16  2  0  0  0
 16 17  1  0  0  0
 17 18  2  0  0  0
 18 19  1  0  0  0
 19 20  2  0  0  0
 20 21  1  0  0  0
 21 22  2  0  0  0
M  END
>  <Entry>
324

>  <title>
18-8281

>  <rigid docking scores>
-17.4016

>  <InChIKey>
QSACIMBCMUVJQP-UHFFFAOYSA-N

>  <SureChEMBL Patents>
SCHEMBL3418752

>  <Pubchem>
14320099

$$$$
atoms 23 bonds 26
dotmatics
mol io
 23 26  0  0  0  0  0  0  0  0999 V2000
    5.7327    2.6899    0.0000 C   0  0  0  0  0  0  0  0  0  0  0  0
    5.0168    2.2758    0.0000 N   0  0  0  0  0  0  0  0  0  0  0  0
    5.0175    1.4488    0.0000 C   0  0  0  0  0  0  0  0  0  0  0  0
    4.3017    1.0347    0.0000 C   0  0  0  0  0  0  0  0  0  0  0  0
    3.5851    1.4475    0.0000 N   0  0  0  0  0  0  0  0  0  0  0  0
    2.8693    1.0334    0.0000 C   0  0  0  0  0  0  0  0  0  0  0  0
    2.8693    0.2052    0.0000 N   0  0  0  0  0  0  0  0  0  0  0  0
    2.1534   -0.2090    0.0000 C   0  0  0  0  0  0  0  0  0  0  0  0
    2.1594   -1.0359    0.0000 N   0  0  0  0  0  0  0  0  0  0  0  0
    2.8785   -1.4443    0.0000 C   0  0  0  0  0  0  0  0  0  0  0  0
    2.8844   -2.2713    0.0000 C   0  0  0  0  0  0  0  0  0  0  0  0
    2.1712   -2.6899    0.0000 C   0  0  0  0  0  0  0  0  0  0  0  0
    1.4520   -2.2815    0.0000 C   0  0  0  0  0  0  0  0  0  0  0  0
    1.4461   -1.4545    0.0000 C   0  0  0  0  0  0  0  0  0  0  0  0
    1.4317    0.2052    0.0000 C   0  0  0  0  0  0  0  0  0  0  0  0
    0.7158   -0.2090    0.0000 C   0  0  0  0  0  0  0  0  0  0  0  0
    0.0000    0.2052    0.0000 C   0  0  0  0  0  0  0  0  0  0  0  0
    0.0000    1.0334    0.0000 C   0  0  0  0  0  0  0  0  0  0  0  0
    0.7158    1.4475    0.0000 C   0  0  0  0  0  0  0  0  0  0  0  0
    1.4317    1.0334    0.0000 C   0  0  0  0  0  0  0  0  0  0  0  0
    2.1534    1.4475    0.0000 N   0  0  0  0  0  0  0  0  0  0  0  0
    3.5844    2.2745    0.0000 C   0  0  0  0  0  0  0  0  0  0  0  0
    4.3003    2.6887    0.0000 C   0  0  0  0  0  0  0  0  0  0  0  0
  1  2  1  0  0  0
  2 23  1  0  0  0
  2  3  1  0  0  0
  3  4  1  0  0  0
  4  5  1  0  0  0
  5  6  1  0  0  0
  6 21  1  0  0  0
  6  7  2  0  0  0
  7  8  1  0  0  0
  8  9  1  0  0  0
  9 14  1  0  0  0
  9 10  1  0  0  0
 10 11  1  0  0  0
 11 12  1  0  0  0
 12 13  1  0  0  0
 13 14  1  0  0  0
  8 15  2  0  0  0
 15 20  1  0  0  0
 15 16  1  0  0  0
 16 17  2  0  0  0
 17 18  1  0  0  0
 18 19  2  0  0  0
 19 20  1  0  0  0
 20 21  2  0  0  0
  5 22  1  0  0  0
 22 23  1  0  0  0
M  END
>  <Entry>
325

>  <title>
18-8919

>  <rigid docking scores>
-16.7798

>  <InChIKey>
QAYJBDHHJUHRNJ-UHFFFAOYSA-N

>  <ZINC>
ZINC000041148665

>  <eMolecules>
31199819

>  <Pubchem>
52109311

>  <Mcule>
MCULE-1155915775

$$$$
atoms 21 bonds 23
dotmatics
mol io
 21 23  0  0  0  0  0  0  0  0999 V2000
    0.0000   -1.4507    0.0000 C   0  0  0  0  0  0  0  0  0  0  0  0
    0.7158   -1.0366    0.0000 C   0  0  0  0  0  0  0  0  0  0  0  0
    0.7151   -0.2096    0.0000 C   0  0  0  0  0  0  0  0  0  0  0  0
    1.4310    0.2046    0.0000 C   0  0  0  0  0  0  0  0  0  0  0  0
    2.1475   -0.2083    0.0000 C   0  0  0  0  0  0  0  0  0  0  0  0
    2.8634    0.2058    0.0000 C   0  0  0  0  0  0  0  0  0  0  0  0
    3.5799   -0.2071    0.0000 C   0  0  0  0  0  0  0  0  0  0  0  0
    4.2958    0.2071    0.0000 C   0  0  0  0  0  0  0  0  0  0  0  0
    4.2951    1.0341    0.0000 O   0  0  0  0  0  0  0  0  0  0  0  0
    5.0123   -0.2058    0.0000 N   0  0  0  0  0  0  0  0  0  0  0  0
    5.7282    0.2083    0.0000 C   0  0  0  0  0  0  0  0  0  0  0  0
    5.7282    1.0366    0.0000 C   0  0  0  0  0  0  0  0  0  0  0  0
    6.4440    1.4507    0.0000 C   0  0  0  0  0  0  0  0  0  0  0  0
    7.1599    1.0366    0.0000 C   0  0  0  0  0  0  0  0  0  0  0  0
    7.9467    1.2909    0.0000 N   0  0  0  0  0  0  0  0  0  0  0  0
    8.4377    0.6224    0.0000 N   0  0  0  0  0  0  0  0  0  0  0  0
    7.9467   -0.0461    0.0000 C   0  0  0  0  0  0  0  0  0  0  0  0
    7.1599    0.2083    0.0000 C   0  0  0  0  0  0  0  0  0  0  0  0
    6.4440   -0.2058    0.0000 C   0  0  0  0  0  0  0  0  0  0  0  0
    2.1482   -1.0353    0.0000 C   0  0  0  0  0  0  0  0  0  0  0  0
    1.4324   -1.4494    0.0000 N   0  0  0  0  0  0  0  0  0  0  0  0
  1  2  1  0  0  0
  2 21  1  0  0  0
  2  3  2  0  0  0
  3  4  1  0  0  0
  4  5  2  0  0  0
  5  6  1  0  0  0
  6  7  1  0  0  0
  7  8  1  0  0  0
  8  9  2  0  0  0
  8 10  1  0  0  0
 10 11  1  0  0  0
 11 19  1  0  0  0
 11 12  1  0  0  0
 12 13  1  0  0  0
 13 14  1  0  0  0
 14 18  2  0  0  0
 14 15  1  0  0  0
 15 16  1  0  0  0
 16 17  2  0  0  0
 17 18  1  0  0  0
 18 19  1  0  0  0
  5 20  1  0  0  0
 20 21  2  0  0  0
M  END
>  <Entry>
326

>  <title>
2-7333

>  <rigid docking scores>
-17.1945

>  <InChIKey>
SOFCBIKYCOKXFT-UHFFFAOYSA-N

$$$$
atoms 19 bonds 21
dotmatics
mol io
 19 21  0  0  0  0  0  0  0  0999 V2000
    3.5851   -2.0636    0.0000 O   0  0  0  0  0  0  0  0  0  0  0  0
    2.8693   -1.6495    0.0000 C   0  0  0  0  0  0  0  0  0  0  0  0
    2.8693   -0.8212    0.0000 C   0  0  0  0  0  0  0  0  0  0  0  0
    2.1534   -0.4071    0.0000 N   0  0  0  0  0  0  0  0  0  0  0  0
    2.1594    0.4199    0.0000 C   0  0  0  0  0  0  0  0  0  0  0  0
    1.4461    0.8385    0.0000 O   0  0  0  0  0  0  0  0  0  0  0  0
    2.8785    0.8282    0.0000 C   0  0  0  0  0  0  0  0  0  0  0  0
    2.8844    1.6552    0.0000 C   0  0  0  0  0  0  0  0  0  0  0  0
    3.6035    2.0636    0.0000 C   0  0  0  0  0  0  0  0  0  0  0  0
    4.3168    1.6450    0.0000 C   0  0  0  0  0  0  0  0  0  0  0  0
    4.3109    0.8180    0.0000 C   0  0  0  0  0  0  0  0  0  0  0  0
    3.5917    0.4096    0.0000 C   0  0  0  0  0  0  0  0  0  0  0  0
    1.4317   -0.8212    0.0000 C   0  0  0  0  0  0  0  0  0  0  0  0
    0.7158   -0.4071    0.0000 C   0  0  0  0  0  0  0  0  0  0  0  0
    0.0000   -0.8212    0.0000 C   0  0  0  0  0  0  0  0  0  0  0  0
    0.0000   -1.6495    0.0000 C   0  0  0  0  0  0  0  0  0  0  0  0
    0.7158   -2.0636    0.0000 C   0  0  0  0  0  0  0  0  0  0  0  0
    1.4317   -1.6495    0.0000 C   0  0  0  0  0  0  0  0  0  0  0  0
    2.1534   -2.0636    0.0000 N   0  0  0  0  0  0  0  0  0  0  0  0
  1  2  2  0  0  0
  2 19  1  0  0  0
  2  3  1  0  0  0
  3  4  1  0  0  0
  4  5  1  0  0  0
  5  6  2  0  0  0
  5  7  1  0  0  0
  7 12  1  0  0  0
  7  8  2  0  0  0
  8  9  1  0  0  0
  9 10  2  0  0  0
 10 11  1  0  0  0
 11 12  2  0  0  0
  4 13  1  0  0  0
 13 18  1  0  0  0
 13 14  2  0  0  0
 14 15  1  0  0  0
 15 16  2  0  0  0
 16 17  1  0  0  0
 17 18  2  0  0  0
 18 19  1  0  0  0
M  END
>  <Entry>
327

>  <title>
18-9097

>  <rigid docking scores>
-19.0793

>  <InChIKey>
VIWZECRAKPJMGM-UHFFFAOYSA-N

>  <ChEMBL>
CHEMBL1334522

>  <ZINC>
ZINC000000149926

>  <eMolecules>
1523721

>  <SureChEMBL Patents>
SCHEMBL9375233

>  <Pubchem>
734378

>  <Mcule>
MCULE-8307123112

>  <MolPort>
MolPort-002-017-957

$$$$
atoms 20 bonds 22
dotmatics
mol io
 20 22  0  0  0  0  0  0  0  0999 V2000
    2.4709   -0.7959    0.0000 C   0  0  0  0  0  0  0  0  0  0  0  0
    2.2185   -0.0083    0.0000 C   0  0  0  0  0  0  0  0  0  0  0  0
    2.7096    0.6602    0.0000 C   0  0  0  0  0  0  0  0  0  0  0  0
    3.5366    0.6602    0.0000 C   0  0  0  0  0  0  0  0  0  0  0  0
    3.9501    1.3764    0.0000 O   0  0  0  0  0  0  0  0  0  0  0  0
    3.9501   -0.0560    0.0000 N   0  0  0  0  0  0  0  0  0  0  0  0
    4.7771   -0.0560    0.0000 C   0  0  0  0  0  0  0  0  0  0  0  0
    5.1906    0.6602    0.0000 C   0  0  0  0  0  0  0  0  0  0  0  0
    6.0176    0.6602    0.0000 C   0  0  0  0  0  0  0  0  0  0  0  0
    6.4311   -0.0560    0.0000 C   0  0  0  0  0  0  0  0  0  0  0  0
    6.0176   -0.7722    0.0000 N   0  0  0  0  0  0  0  0  0  0  0  0
    5.1906   -0.7722    0.0000 C   0  0  0  0  0  0  0  0  0  0  0  0
    4.7771   -1.4884    0.0000 O   0  0  0  0  0  0  0  0  0  0  0  0
    2.2185    1.3287    0.0000 O   0  0  0  0  0  0  0  0  0  0  0  0
    1.4317    1.0743    0.0000 C   0  0  0  0  0  0  0  0  0  0  0  0
    0.7158    1.4884    0.0000 C   0  0  0  0  0  0  0  0  0  0  0  0
    0.0000    1.0743    0.0000 C   0  0  0  0  0  0  0  0  0  0  0  0
    0.0000    0.2461    0.0000 C   0  0  0  0  0  0  0  0  0  0  0  0
    0.7158   -0.1681    0.0000 C   0  0  0  0  0  0  0  0  0  0  0  0
    1.4317    0.2461    0.0000 C   0  0  0  0  0  0  0  0  0  0  0  0
  1  2  1  0  0  0
  2 20  1  0  0  0
  2  3  2  0  0  0
  3  4  1  0  0  0
  4  5  2  0  0  0
  4  6  1  0  0  0
  6  7  1  0  0  0
  7 12  1  0  0  0
  7  8  1  0  0  0
  8  9  1  0  0  0
  9 10  1  0  0  0
 10 11  1  0  0  0
 11 12  1  0  0  0
 12 13  2  0  0  0
  3 14  1  0  0  0
 14 15  1  0  0  0
 15 20  1  0  0  0
 15 16  2  0  0  0
 16 17  1  0  0  0
 17 18  2  0  0  0
 18 19  1  0  0  0
 19 20  2  0  0  0
M  END
>  <Entry>
328

>  <title>
1-1700

>  <rigid docking scores>
-15.9218

>  <InChIKey>
KIEWBUMGAKACGS-UHFFFAOYSA-N

>  <eMolecules>
32132093

>  <Pubchem>
47478219

>  <Mcule>
MCULE-6506743480

>  <MolPort>
MolPort-009-578-717

$$$$
atoms 22 bonds 24
dotmatics
mol io
 22 24  0  0  0  0  0  0  0  0999 V2000
    4.9953    2.2837    0.0000 C   0  0  0  0  0  0  0  0  0  0  0  0
    4.2787    2.6966    0.0000 N   0  0  0  0  0  0  0  0  0  0  0  0
    3.5629    2.2825    0.0000 C   0  0  0  0  0  0  0  0  0  0  0  0
    3.5629    1.4543    0.0000 N   0  0  0  0  0  0  0  0  0  0  0  0
    2.8470    1.0401    0.0000 C   0  0  0  0  0  0  0  0  0  0  0  0
    2.8529    0.2132    0.0000 N   0  0  0  0  0  0  0  0  0  0  0  0
    3.5721   -0.1952    0.0000 C   0  0  0  0  0  0  0  0  0  0  0  0
    2.1397   -0.2055    0.0000 C   0  0  0  0  0  0  0  0  0  0  0  0
    2.1456   -1.0324    0.0000 C   0  0  0  0  0  0  0  0  0  0  0  0
    1.4324   -1.4510    0.0000 C   0  0  0  0  0  0  0  0  0  0  0  0
    1.4383   -2.2780    0.0000 C   0  0  0  0  0  0  0  0  0  0  0  0
    0.7250   -2.6966    0.0000 C   0  0  0  0  0  0  0  0  0  0  0  0
    0.0059   -2.2883    0.0000 C   0  0  0  0  0  0  0  0  0  0  0  0
    0.0000   -1.4613    0.0000 C   0  0  0  0  0  0  0  0  0  0  0  0
    0.7132   -1.0427    0.0000 C   0  0  0  0  0  0  0  0  0  0  0  0
    2.1253    1.4543    0.0000 C   0  0  0  0  0  0  0  0  0  0  0  0
    1.4094    1.0401    0.0000 C   0  0  0  0  0  0  0  0  0  0  0  0
    0.6936    1.4543    0.0000 C   0  0  0  0  0  0  0  0  0  0  0  0
    0.6936    2.2825    0.0000 C   0  0  0  0  0  0  0  0  0  0  0  0
    1.4094    2.6966    0.0000 C   0  0  0  0  0  0  0  0  0  0  0  0
    2.1253    2.2825    0.0000 C   0  0  0  0  0  0  0  0  0  0  0  0
    2.8470    2.6966    0.0000 N   0  0  0  0  0  0  0  0  0  0  0  0
  1  2  1  0  0  0
  2  3  1  0  0  0
  3 22  1  0  0  0
  3  4  2  0  0  0
  4  5  1  0  0  0
  5  6  1  0  0  0
  6  7  1  0  0  0
  6  8  1  0  0  0
  8  9  1  0  0  0
  9 10  1  0  0  0
 10 15  1  0  0  0
 10 11  2  0  0  0
 11 12  1  0  0  0
 12 13  2  0  0  0
 13 14  1  0  0  0
 14 15  2  0  0  0
  5 16  2  0  0  0
 16 21  1  0  0  0
 16 17  1  0  0  0
 17 18  2  0  0  0
 18 19  1  0  0  0
 19 20  2  0  0  0
 20 21  1  0  0  0
 21 22  2  0  0  0
M  END
>  <Entry>
329

>  <title>
2-7358

>  <rigid docking scores>
-15.9202

>  <InChIKey>
JMSVXHBILYNZDX-UHFFFAOYSA-N

$$$$
atoms 20 bonds 21
dotmatics
mol io
 20 21  0  0  0  0  0  0  0  0999 V2000
   -3.1012    4.8899    0.0000 C   0  0  0  0  0  0  0  0  0  0  0  0
   -2.2743    4.8899    0.0000 N   0  0  0  0  0  0  0  0  0  0  0  0
   -1.8607    5.6061    0.0000 C   0  0  0  0  0  0  0  0  0  0  0  0
   -1.8607    4.1737    0.0000 C   0  0  0  0  0  0  0  0  0  0  0  0
   -1.0338    4.1737    0.0000 C   0  0  0  0  0  0  0  0  0  0  0  0
   -0.6202    3.4575    0.0000 N   0  0  0  0  0  0  0  0  0  0  0  0
    0.2068    3.4575    0.0000 C   0  0  0  0  0  0  0  0  0  0  0  0
    0.6202    4.1737    0.0000 O   0  0  0  0  0  0  0  0  0  0  0  0
    0.6202    2.7413    0.0000 N   0  0  0  0  0  0  0  0  0  0  0  0
    1.4473    2.7413    0.0000 C   0  0  0  0  0  0  0  0  0  0  0  0
    1.8607    3.4575    0.0000 C   0  0  0  0  0  0  0  0  0  0  0  0
    2.6878    3.4575    0.0000 C   0  0  0  0  0  0  0  0  0  0  0  0
    3.1012    2.7413    0.0000 C   0  0  0  0  0  0  0  0  0  0  0  0
    2.6878    2.0251    0.0000 C   0  0  0  0  0  0  0  0  0  0  0  0
    1.8607    2.0251    0.0000 C   0  0  0  0  0  0  0  0  0  0  0  0
    1.4473    1.3089    0.0000 N   0  0  0  0  0  0  0  0  0  0  0  0
    1.7836    0.5534    0.0000 C   0  0  0  0  0  0  0  0  0  0  0  0
    1.1690   -0.0000    0.0000 C   0  0  0  0  0  0  0  0  0  0  0  0
    0.4528    0.4135    0.0000 C   0  0  0  0  0  0  0  0  0  0  0  0
    0.6248    1.2224    0.0000 C   0  0  0  0  0  0  0  0  0  0  0  0
  1  2  1  0  0  0
  2  3  1  0  0  0
  2  4  1  0  0  0
  4  5  1  0  0  0
  5  6  1  0  0  0
  6  7  1  0  0  0
  7  8  2  0  0  0
  7  9  1  0  0  0
  9 10  1  0  0  0
 10 15  1  0  0  0
 10 11  2  0  0  0
 11 12  1  0  0  0
 12 13  2  0  0  0
 13 14  1  0  0  0
 14 15  2  0  0  0
 15 16  1  0  0  0
 16 20  1  0  0  0
 16 17  1  0  0  0
 17 18  2  0  0  0
 18 19  1  0  0  0
 19 20  2  0  0  0
M  END
>  <Entry>
330

>  <title>
19-339

>  <rigid docking scores>
-15.5974

>  <InChIKey>
HHXOINKZFHGBKP-UHFFFAOYSA-N

$$$$
atoms 23 bonds 26
dotmatics
mol io
 23 26  0  0  0  0  0  0  0  0999 V2000
    2.1482   -0.0148    0.0000 O   0  0  0  0  0  0  0  0  0  0  0  0
    1.4320    0.3987    0.0000 C   0  0  0  0  0  0  0  0  0  0  0  0
    0.7158   -0.0148    0.0000 C   0  0  0  0  0  0  0  0  0  0  0  0
    0.7158   -0.8418    0.0000 C   0  0  0  0  0  0  0  0  0  0  0  0
    0.0000   -1.2559    0.0000 C   0  0  0  0  0  0  0  0  0  0  0  0
    0.0000   -2.0842    0.0000 C   0  0  0  0  0  0  0  0  0  0  0  0
    0.7158   -2.4983    0.0000 C   0  0  0  0  0  0  0  0  0  0  0  0
    1.4317   -2.0842    0.0000 C   0  0  0  0  0  0  0  0  0  0  0  0
    2.2185   -2.3386    0.0000 N   0  0  0  0  0  0  0  0  0  0  0  0
    2.7096   -1.6701    0.0000 C   0  0  0  0  0  0  0  0  0  0  0  0
    3.5366   -1.6701    0.0000 C   0  0  0  0  0  0  0  0  0  0  0  0
    3.9501   -0.9539    0.0000 C   0  0  0  0  0  0  0  0  0  0  0  0
    4.7771   -0.9539    0.0000 C   0  0  0  0  0  0  0  0  0  0  0  0
    5.1906   -1.6701    0.0000 C   0  0  0  0  0  0  0  0  0  0  0  0
    4.7771   -2.3863    0.0000 C   0  0  0  0  0  0  0  0  0  0  0  0
    3.9501   -2.3863    0.0000 N   0  0  0  0  0  0  0  0  0  0  0  0
    2.2185   -1.0015    0.0000 N   0  0  0  0  0  0  0  0  0  0  0  0
    1.4317   -1.2559    0.0000 C   0  0  0  0  0  0  0  0  0  0  0  0
    1.4320    1.2257    0.0000 N   0  0  0  0  0  0  0  0  0  0  0  0
    0.7630    1.7118    0.0000 C   0  0  0  0  0  0  0  0  0  0  0  0
    1.0185    2.4983    0.0000 C   0  0  0  0  0  0  0  0  0  0  0  0
    1.8455    2.4983    0.0000 C   0  0  0  0  0  0  0  0  0  0  0  0
    2.1011    1.7118    0.0000 C   0  0  0  0  0  0  0  0  0  0  0  0
  1  2  2  0  0  0
  2  3  1  0  0  0
  3  4  1  0  0  0
  4 18  1  0  0  0
  4  5  2  0  0  0
  5  6  1  0  0  0
  6  7  2  0  0  0
  7  8  1  0  0  0
  8 18  2  0  0  0
  8  9  1  0  0  0
  9 10  1  0  0  0
 10 11  1  0  0  0
 11 16  1  0  0  0
 11 12  2  0  0  0
 12 13  1  0  0  0
 13 14  2  0  0  0
 14 15  1  0  0  0
 15 16  2  0  0  0
 10 17  2  0  0  0
 17 18  1  0  0  0
  2 19  1  0  0  0
 19 23  1  0  0  0
 19 20  1  0  0  0
 20 21  1  0  0  0
 21 22  1  0  0  0
 22 23  1  0  0  0
M  END
>  <Entry>
331

>  <title>
19-749

>  <rigid docking scores>
-15.33

>  <InChIKey>
SATRSFTWYQYGOJ-UHFFFAOYSA-N

$$$$
atoms 22 bonds 24
dotmatics
mol io
 22 24  0  0  0  0  0  0  0  0999 V2000
    4.1412    3.2227    0.0000 C   0  0  0  0  0  0  0  0  0  0  0  0
    3.7271    2.5069    0.0000 C   0  0  0  0  0  0  0  0  0  0  0  0
    4.1412    1.7910    0.0000 C   0  0  0  0  0  0  0  0  0  0  0  0
    3.7271    1.0752    0.0000 C   0  0  0  0  0  0  0  0  0  0  0  0
    4.1412    0.3594    0.0000 N   0  0  0  0  0  0  0  0  0  0  0  0
    3.7284   -0.3572    0.0000 C   0  0  0  0  0  0  0  0  0  0  0  0
    4.1425   -1.0730    0.0000 C   0  0  0  0  0  0  0  0  0  0  0  0
    3.7296   -1.7896    0.0000 C   0  0  0  0  0  0  0  0  0  0  0  0
    4.1437   -2.5054    0.0000 C   0  0  0  0  0  0  0  0  0  0  0  0
    3.7309   -3.2220    0.0000 C   0  0  0  0  0  0  0  0  0  0  0  0
    2.9039   -3.2227    0.0000 C   0  0  0  0  0  0  0  0  0  0  0  0
    2.4897   -2.5069    0.0000 C   0  0  0  0  0  0  0  0  0  0  0  0
    2.9026   -1.7903    0.0000 C   0  0  0  0  0  0  0  0  0  0  0  0
    2.8989    1.0752    0.0000 N   0  0  0  0  0  0  0  0  0  0  0  0
    2.4847    1.7910    0.0000 C   0  0  0  0  0  0  0  0  0  0  0  0
    1.6565    1.7910    0.0000 C   0  0  0  0  0  0  0  0  0  0  0  0
    1.2424    1.0752    0.0000 C   0  0  0  0  0  0  0  0  0  0  0  0
    0.4141    1.0752    0.0000 C   0  0  0  0  0  0  0  0  0  0  0  0
    0.0000    1.7910    0.0000 C   0  0  0  0  0  0  0  0  0  0  0  0
    0.4141    2.5069    0.0000 C   0  0  0  0  0  0  0  0  0  0  0  0
    1.2424    2.5069    0.0000 N   0  0  0  0  0  0  0  0  0  0  0  0
    2.8989    2.5069    0.0000 N   0  0  0  0  0  0  0  0  0  0  0  0
  1  2  1  0  0  0
  2 22  1  0  0  0
  2  3  2  0  0  0
  3  4  1  0  0  0
  4  5  1  0  0  0
  5  6  1  0  0  0
  6  7  1  0  0  0
  7  8  1  0  0  0
  8 13  1  0  0  0
  8  9  2  0  0  0
  9 10  1  0  0  0
 10 11  2  0  0  0
 11 12  1  0  0  0
 12 13  2  0  0  0
  4 14  2  0  0  0
 14 15  1  0  0  0
 15 16  1  0  0  0
 16 21  1  0  0  0
 16 17  2  0  0  0
 17 18  1  0  0  0
 18 19  2  0  0  0
 19 20  1  0  0  0
 20 21  2  0  0  0
 15 22  2  0  0  0
M  END
>  <Entry>
332

>  <title>
19-817

>  <rigid docking scores>
-20.2312

>  <InChIKey>
YGGMFDADXKMNSI-UHFFFAOYSA-N

>  <ChEMBL>
CHEMBL454036

>  <SureChEMBL Patents>
SCHEMBL12674351

>  <Pubchem>
44590979

$$$$
atoms 21 bonds 23
dotmatics
mol io
 21 23  0  0  0  0  0  0  0  0999 V2000
    0.0000    2.3839    0.0000 C   0  0  0  0  0  0  0  0  0  0  0  0
    0.7158    1.9698    0.0000 C   0  0  0  0  0  0  0  0  0  0  0  0
    1.4324    2.3826    0.0000 C   0  0  0  0  0  0  0  0  0  0  0  0
    2.1482    1.9685    0.0000 C   0  0  0  0  0  0  0  0  0  0  0  0
    2.1475    1.1415    0.0000 C   0  0  0  0  0  0  0  0  0  0  0  0
    2.8634    0.7274    0.0000 C   0  0  0  0  0  0  0  0  0  0  0  0
    3.5799    1.1403    0.0000 O   0  0  0  0  0  0  0  0  0  0  0  0
    2.8626   -0.0996    0.0000 N   0  0  0  0  0  0  0  0  0  0  0  0
    3.5785   -0.5137    0.0000 C   0  0  0  0  0  0  0  0  0  0  0  0
    3.5785   -1.3420    0.0000 C   0  0  0  0  0  0  0  0  0  0  0  0
    4.2943   -1.7561    0.0000 C   0  0  0  0  0  0  0  0  0  0  0  0
    5.0102   -1.3420    0.0000 C   0  0  0  0  0  0  0  0  0  0  0  0
    5.0102   -0.5137    0.0000 C   0  0  0  0  0  0  0  0  0  0  0  0
    4.2943   -0.0996    0.0000 C   0  0  0  0  0  0  0  0  0  0  0  0
    5.7970   -0.2593    0.0000 C   0  0  0  0  0  0  0  0  0  0  0  0
    6.0494    0.5282    0.0000 O   0  0  0  0  0  0  0  0  0  0  0  0
    6.2880   -0.9278    0.0000 N   0  0  0  0  0  0  0  0  0  0  0  0
    5.7970   -1.5964    0.0000 C   0  0  0  0  0  0  0  0  0  0  0  0
    6.0494   -2.3839    0.0000 O   0  0  0  0  0  0  0  0  0  0  0  0
    1.4310    0.7286    0.0000 C   0  0  0  0  0  0  0  0  0  0  0  0
    0.7151    1.1428    0.0000 C   0  0  0  0  0  0  0  0  0  0  0  0
  1  2  1  0  0  0
  2 21  1  0  0  0
  2  3  2  0  0  0
  3  4  1  0  0  0
  4  5  2  0  0  0
  5  6  1  0  0  0
  6  7  2  0  0  0
  6  8  1  0  0  0
  8  9  1  0  0  0
  9 14  1  0  0  0
  9 10  2  0  0  0
 10 11  1  0  0  0
 11 12  2  0  0  0
 12 18  1  0  0  0
 12 13  1  0  0  0
 13 14  2  0  0  0
 13 15  1  0  0  0
 15 16  2  0  0  0
 15 17  1  0  0  0
 17 18  1  0  0  0
 18 19  2  0  0  0
  5 20  1  0  0  0
 20 21  2  0  0  0
M  END
>  <Entry>
333

>  <title>
19-935

>  <rigid docking scores>
-15.486

>  <InChIKey>
MBIKTHQSXFBPRL-UHFFFAOYSA-N

>  <ChEMBL>
CHEMBL1357072

>  <ZINC>
ZINC000004263838

>  <eMolecules>
4949931

>  <SureChEMBL Patents>
SCHEMBL12635988

>  <Pubchem>
7157927

>  <Mcule>
MCULE-5307182587

>  <MolPort>
MolPort-003-059-416

$$$$
atoms 23 bonds 25
dotmatics
mol io
 23 25  0  0  0  0  0  0  0  0999 V2000
    3.5810    2.4810    0.0000 C   0  0  0  0  0  0  0  0  0  0  0  0
    3.5810    1.6540    0.0000 C   0  0  0  0  0  0  0  0  0  0  0  0
    4.2972    1.2405    0.0000 C   0  0  0  0  0  0  0  0  0  0  0  0
    4.2972    0.4135    0.0000 C   0  0  0  0  0  0  0  0  0  0  0  0
    5.0134    0.0000    0.0000 N   0  0  0  0  0  0  0  0  0  0  0  0
    5.0134   -0.8270    0.0000 C   0  0  0  0  0  0  0  0  0  0  0  0
    4.2972   -1.2405    0.0000 O   0  0  0  0  0  0  0  0  0  0  0  0
    5.7296   -1.2405    0.0000 C   0  0  0  0  0  0  0  0  0  0  0  0
    6.4458   -0.8270    0.0000 C   0  0  0  0  0  0  0  0  0  0  0  0
    7.1620   -1.2405    0.0000 C   0  0  0  0  0  0  0  0  0  0  0  0
    7.1620   -2.0675    0.0000 C   0  0  0  0  0  0  0  0  0  0  0  0
    6.4458   -2.4810    0.0000 C   0  0  0  0  0  0  0  0  0  0  0  0
    5.7296   -2.0675    0.0000 C   0  0  0  0  0  0  0  0  0  0  0  0
    3.5810    0.0000    0.0000 C   0  0  0  0  0  0  0  0  0  0  0  0
    2.8648    0.4135    0.0000 N   0  0  0  0  0  0  0  0  0  0  0  0
    2.1486    0.0000    0.0000 C   0  0  0  0  0  0  0  0  0  0  0  0
    1.4324    0.4135    0.0000 C   0  0  0  0  0  0  0  0  0  0  0  0
    0.7162    0.0000    0.0000 C   0  0  0  0  0  0  0  0  0  0  0  0
    0.0000    0.4135    0.0000 C   0  0  0  0  0  0  0  0  0  0  0  0
    0.0000    1.2405    0.0000 N   0  0  0  0  0  0  0  0  0  0  0  0
    0.7162    1.6540    0.0000 C   0  0  0  0  0  0  0  0  0  0  0  0
    1.4324    1.2405    0.0000 C   0  0  0  0  0  0  0  0  0  0  0  0
    2.8648    1.2405    0.0000 C   0  0  0  0  0  0  0  0  0  0  0  0
  1  2  1  0  0  0
  2 23  1  0  0  0
  2  3  1  0  0  0
  3  4  1  0  0  0
  4  5  1  0  0  0
  5  6  1  0  0  0
  6  7  2  0  0  0
  6  8  1  0  0  0
  8 13  1  0  0  0
  8  9  2  0  0  0
  9 10  1  0  0  0
 10 11  2  0  0  0
 11 12  1  0  0  0
 12 13  2  0  0  0
  4 14  1  0  0  0
 14 15  1  0  0  0
 15 16  1  0  0  0
 16 17  1  0  0  0
 17 22  1  0  0  0
 17 18  2  0  0  0
 18 19  1  0  0  0
 19 20  2  0  0  0
 20 21  1  0  0  0
 21 22  2  0  0  0
 15 23  1  0  0  0
M  END
>  <Entry>
334

>  <title>
19-985

>  <rigid docking scores>
-16.1359

>  <InChIKey>
ZCSVAWIUCNGRQC-UHFFFAOYSA-N

$$$$
atoms 20 bonds 21
dotmatics
mol io
 20 21  0  0  0  0  0  0  0  0999 V2000
    5.0134    1.4473    0.0000 C   0  0  0  0  0  0  0  0  0  0  0  0
    5.0134    0.6203    0.0000 C   0  0  0  0  0  0  0  0  0  0  0  0
    5.7296    0.2068    0.0000 C   0  0  0  0  0  0  0  0  0  0  0  0
    5.7296   -0.6202    0.0000 C   0  0  0  0  0  0  0  0  0  0  0  0
    5.0134   -1.0337    0.0000 C   0  0  0  0  0  0  0  0  0  0  0  0
    5.0134   -1.8607    0.0000 C   0  0  0  0  0  0  0  0  0  0  0  0
    4.2972   -0.6202    0.0000 C   0  0  0  0  0  0  0  0  0  0  0  0
    3.5810   -1.0337    0.0000 N   0  0  0  0  0  0  0  0  0  0  0  0
    2.8648   -0.6202    0.0000 C   0  0  0  0  0  0  0  0  0  0  0  0
    2.8648    0.2068    0.0000 O   0  0  0  0  0  0  0  0  0  0  0  0
    2.1486   -1.0337    0.0000 C   0  0  0  0  0  0  0  0  0  0  0  0
    1.4324   -0.6202    0.0000 N   0  0  0  0  0  0  0  0  0  0  0  0
    0.7162   -1.0337    0.0000 C   0  0  0  0  0  0  0  0  0  0  0  0
    0.0000   -0.6202    0.0000 C   0  0  0  0  0  0  0  0  0  0  0  0
    0.0000    0.2068    0.0000 C   0  0  0  0  0  0  0  0  0  0  0  0
    0.7162    0.6203    0.0000 C   0  0  0  0  0  0  0  0  0  0  0  0
    0.7162    1.4473    0.0000 C   0  0  0  0  0  0  0  0  0  0  0  0
    1.4324    1.8607    0.0000 O   0  0  0  0  0  0  0  0  0  0  0  0
    1.4324    0.2068    0.0000 C   0  0  0  0  0  0  0  0  0  0  0  0
    4.2972    0.2068    0.0000 C   0  0  0  0  0  0  0  0  0  0  0  0
  1  2  1  0  0  0
  2 20  1  0  0  0
  2  3  2  0  0  0
  3  4  1  0  0  0
  4  5  2  0  0  0
  5  6  1  0  0  0
  5  7  1  0  0  0
  7  8  1  0  0  0
  8  9  1  0  0  0
  9 10  2  0  0  0
  9 11  1  0  0  0
 11 12  1  0  0  0
 12 19  1  0  0  0
 12 13  1  0  0  0
 13 14  1  0  0  0
 14 15  1  0  0  0
 15 16  1  0  0  0
 16 17  1  0  0  0
 17 18  1  0  0  0
 16 19  1  0  0  0
  7 20  2  0  0  0
M  END
>  <Entry>
335

>  <title>
19-1015

>  <rigid docking scores>
-17.6007

>  <InChIKey>
UPZBDSNQKRYHHY-UHFFFAOYSA-N

>  <Pubchem>
60642421

>  <Mcule>
MCULE-8293663493

$$$$
atoms 21 bonds 23
dotmatics
mol io
 21 23  0  0  0  0  0  0  0  0999 V2000
    5.0134    2.0675    0.0000 C   0  0  0  0  0  0  0  0  0  0  0  0
    5.7296    1.6540    0.0000 C   0  0  0  0  0  0  0  0  0  0  0  0
    5.7296    0.8270    0.0000 C   0  0  0  0  0  0  0  0  0  0  0  0
    5.0134    0.4135    0.0000 C   0  0  0  0  0  0  0  0  0  0  0  0
    5.0134   -0.4135    0.0000 C   0  0  0  0  0  0  0  0  0  0  0  0
    4.2972   -0.8270    0.0000 N   0  0  0  0  0  0  0  0  0  0  0  0
    4.2972   -1.6540    0.0000 C   0  0  0  0  0  0  0  0  0  0  0  0
    3.5810   -2.0675    0.0000 C   0  0  0  0  0  0  0  0  0  0  0  0
    2.8648   -1.6540    0.0000 C   0  0  0  0  0  0  0  0  0  0  0  0
    2.8648   -0.8270    0.0000 C   0  0  0  0  0  0  0  0  0  0  0  0
    2.1486   -0.4135    0.0000 N   0  0  0  0  0  0  0  0  0  0  0  0
    2.1486    0.4135    0.0000 C   0  0  0  0  0  0  0  0  0  0  0  0
    1.4324    0.8270    0.0000 C   0  0  0  0  0  0  0  0  0  0  0  0
    0.7162    0.4135    0.0000 C   0  0  0  0  0  0  0  0  0  0  0  0
    0.0000    0.8270    0.0000 C   0  0  0  0  0  0  0  0  0  0  0  0
    0.0000    1.6540    0.0000 C   0  0  0  0  0  0  0  0  0  0  0  0
    0.7162    2.0675    0.0000 N   0  0  0  0  0  0  0  0  0  0  0  0
    1.4324    1.6540    0.0000 C   0  0  0  0  0  0  0  0  0  0  0  0
    3.5810   -0.4135    0.0000 C   0  0  0  0  0  0  0  0  0  0  0  0
    4.2972    0.8270    0.0000 C   0  0  0  0  0  0  0  0  0  0  0  0
    4.2972    1.6540    0.0000 C   0  0  0  0  0  0  0  0  0  0  0  0
  1 21  1  0  0  0
  1  2  2  0  0  0
  2  3  1  0  0  0
  3  4  2  0  0  0
  4  5  1  0  0  0
  5  6  1  0  0  0
  6 19  1  0  0  0
  6  7  1  0  0  0
  7  8  1  0  0  0
  8  9  1  0  0  0
  9 10  1  0  0  0
 10 11  1  0  0  0
 11 12  1  0  0  0
 12 13  1  0  0  0
 13 18  1  0  0  0
 13 14  2  0  0  0
 14 15  1  0  0  0
 15 16  2  0  0  0
 16 17  1  0  0  0
 17 18  2  0  0  0
 10 19  1  0  0  0
  4 20  1  0  0  0
 20 21  2  0  0  0
M  END
>  <Entry>
336

>  <title>
19-1397

>  <rigid docking scores>
-16.8126

>  <InChIKey>
GWYRLEXPPXFZDD-UHFFFAOYSA-N

>  <Pubchem>
43327644

$$$$
atoms 22 bonds 24
dotmatics
mol io
 22 24  0  0  0  0  0  0  0  0999 V2000
    5.8478    3.1999    0.0000 N   0  0  0  0  0  0  0  0  0  0  0  0
    5.8478    2.3729    0.0000 C   0  0  0  0  0  0  0  0  0  0  0  0
    6.5640    1.9594    0.0000 O   0  0  0  0  0  0  0  0  0  0  0  0
    5.1316    1.9594    0.0000 C   0  0  0  0  0  0  0  0  0  0  0  0
    5.1316    1.1324    0.0000 N   0  0  0  0  0  0  0  0  0  0  0  0
    5.8478    0.7189    0.0000 C   0  0  0  0  0  0  0  0  0  0  0  0
    5.8478   -0.1081    0.0000 C   0  0  0  0  0  0  0  0  0  0  0  0
    5.1316   -0.5216    0.0000 C   0  0  0  0  0  0  0  0  0  0  0  0
    4.4154   -0.1081    0.0000 C   0  0  0  0  0  0  0  0  0  0  0  0
    3.6992   -0.5216    0.0000 C   0  0  0  0  0  0  0  0  0  0  0  0
    3.6127   -1.3441    0.0000 N   0  0  0  0  0  0  0  0  0  0  0  0
    2.8038   -1.5160    0.0000 C   0  0  0  0  0  0  0  0  0  0  0  0
    2.4674   -2.2715    0.0000 C   0  0  0  0  0  0  0  0  0  0  0  0
    1.6449   -2.3580    0.0000 C   0  0  0  0  0  0  0  0  0  0  0  0
    1.3086   -3.1135    0.0000 C   0  0  0  0  0  0  0  0  0  0  0  0
    0.4861   -3.1999    0.0000 C   0  0  0  0  0  0  0  0  0  0  0  0
    0.0000   -2.5308    0.0000 C   0  0  0  0  0  0  0  0  0  0  0  0
    0.3364   -1.7753    0.0000 C   0  0  0  0  0  0  0  0  0  0  0  0
    1.1588   -1.6889    0.0000 C   0  0  0  0  0  0  0  0  0  0  0  0
    2.3903   -0.7998    0.0000 N   0  0  0  0  0  0  0  0  0  0  0  0
    2.9437   -0.1852    0.0000 O   0  0  0  0  0  0  0  0  0  0  0  0
    4.4154    0.7189    0.0000 C   0  0  0  0  0  0  0  0  0  0  0  0
  1  2  1  0  0  0
  2  3  2  0  0  0
  2  4  1  0  0  0
  4  5  1  0  0  0
  5 22  1  0  0  0
  5  6  1  0  0  0
  6  7  1  0  0  0
  7  8  1  0  0  0
  8  9  1  0  0  0
  9 10  1  0  0  0
 10 21  1  0  0  0
 10 11  2  0  0  0
 11 12  1  0  0  0
 12 13  1  0  0  0
 13 14  1  0  0  0
 14 19  1  0  0  0
 14 15  2  0  0  0
 15 16  1  0  0  0
 16 17  2  0  0  0
 17 18  1  0  0  0
 18 19  2  0  0  0
 12 20  2  0  0  0
 20 21  1  0  0  0
  9 22  1  0  0  0
M  END
>  <Entry>
337

>  <title>
19-1436

>  <rigid docking scores>
-16.3617

>  <InChIKey>
QOGNOQOYKQQANX-UHFFFAOYSA-N

$$$$
atoms 19 bonds 21
dotmatics
mol io
 19 21  0  0  0  0  0  0  0  0999 V2000
    0.4426    3.6406    0.0000 O   0  0  0  0  0  0  0  0  0  0  0  0
    1.2696    3.6406    0.0000 C   0  0  0  0  0  0  0  0  0  0  0  0
    1.6831    4.3568    0.0000 C   0  0  0  0  0  0  0  0  0  0  0  0
    2.5101    4.3568    0.0000 C   0  0  0  0  0  0  0  0  0  0  0  0
    2.9236    3.6406    0.0000 C   0  0  0  0  0  0  0  0  0  0  0  0
    2.5101    2.9244    0.0000 C   0  0  0  0  0  0  0  0  0  0  0  0
    1.6831    2.9244    0.0000 N   0  0  0  0  0  0  0  0  0  0  0  0
    1.2696    2.2082    0.0000 C   0  0  0  0  0  0  0  0  0  0  0  0
    0.4426    2.2082    0.0000 C   0  0  0  0  0  0  0  0  0  0  0  0
   -0.0435    1.5391    0.0000 N   0  0  0  0  0  0  0  0  0  0  0  0
   -0.8300    1.7947    0.0000 C   0  0  0  0  0  0  0  0  0  0  0  0
   -1.4991    1.3086    0.0000 C   0  0  0  0  0  0  0  0  0  0  0  0
   -1.4126    0.4861    0.0000 C   0  0  0  0  0  0  0  0  0  0  0  0
   -2.0817    0.0000    0.0000 C   0  0  0  0  0  0  0  0  0  0  0  0
   -2.8372    0.3364    0.0000 C   0  0  0  0  0  0  0  0  0  0  0  0
   -2.9236    1.1588    0.0000 N   0  0  0  0  0  0  0  0  0  0  0  0
   -2.2546    1.6449    0.0000 C   0  0  0  0  0  0  0  0  0  0  0  0
   -0.8300    2.6217    0.0000 N   0  0  0  0  0  0  0  0  0  0  0  0
   -0.0435    2.8772    0.0000 O   0  0  0  0  0  0  0  0  0  0  0  0
  1  2  2  0  0  0
  2  7  1  0  0  0
  2  3  1  0  0  0
  3  4  1  0  0  0
  4  5  1  0  0  0
  5  6  1  0  0  0
  6  7  1  0  0  0
  7  8  1  0  0  0
  8  9  1  0  0  0
  9 19  1  0  0  0
  9 10  2  0  0  0
 10 11  1  0  0  0
 11 12  1  0  0  0
 12 17  1  0  0  0
 12 13  2  0  0  0
 13 14  1  0  0  0
 14 15  2  0  0  0
 15 16  1  0  0  0
 16 17  2  0  0  0
 11 18  2  0  0  0
 18 19  1  0  0  0
M  END
>  <Entry>
338

>  <title>
19-1582

>  <rigid docking scores>
-16.7373

>  <InChIKey>
WNEZXXZDEADWIW-UHFFFAOYSA-N

$$$$
atoms 20 bonds 22
dotmatics
mol io
 20 22  0  0  0  0  0  0  0  0999 V2000
    4.1425   -0.0011    0.0000 C   0  0  0  0  0  0  0  0  0  0  0  0
    3.7284   -0.7169    0.0000 C   0  0  0  0  0  0  0  0  0  0  0  0
    4.1425   -1.4328    0.0000 N   0  0  0  0  0  0  0  0  0  0  0  0
    3.7284   -2.1486    0.0000 C   0  0  0  0  0  0  0  0  0  0  0  0
    2.9001   -2.1486    0.0000 C   0  0  0  0  0  0  0  0  0  0  0  0
    2.4860   -1.4328    0.0000 C   0  0  0  0  0  0  0  0  0  0  0  0
    1.6577   -1.4328    0.0000 C   0  0  0  0  0  0  0  0  0  0  0  0
    1.2436   -2.1486    0.0000 C   0  0  0  0  0  0  0  0  0  0  0  0
    0.4154   -2.1486    0.0000 C   0  0  0  0  0  0  0  0  0  0  0  0
    0.0012   -1.4328    0.0000 C   0  0  0  0  0  0  0  0  0  0  0  0
    0.4154   -0.7169    0.0000 N   0  0  0  0  0  0  0  0  0  0  0  0
    0.0012   -0.0011    0.0000 C   0  0  0  0  0  0  0  0  0  0  0  0
    0.4141    0.7155    0.0000 C   0  0  0  0  0  0  0  0  0  0  0  0
    0.0000    1.4313    0.0000 C   0  0  0  0  0  0  0  0  0  0  0  0
    0.4129    2.1479    0.0000 C   0  0  0  0  0  0  0  0  0  0  0  0
    1.2399    2.1486    0.0000 C   0  0  0  0  0  0  0  0  0  0  0  0
    1.6540    1.4328    0.0000 N   0  0  0  0  0  0  0  0  0  0  0  0
    1.2411    0.7162    0.0000 C   0  0  0  0  0  0  0  0  0  0  0  0
    1.2436   -0.7169    0.0000 C   0  0  0  0  0  0  0  0  0  0  0  0
    2.9001   -0.7169    0.0000 N   0  0  0  0  0  0  0  0  0  0  0  0
  1  2  1  0  0  0
  2 20  1  0  0  0
  2  3  2  0  0  0
  3  4  1  0  0  0
  4  5  2  0  0  0
  5  6  1  0  0  0
  6  7  1  0  0  0
  7 19  1  0  0  0
  7  8  1  0  0  0
  8  9  1  0  0  0
  9 10  1  0  0  0
 10 11  1  0  0  0
 11 12  1  0  0  0
 12 13  1  0  0  0
 13 18  1  0  0  0
 13 14  2  0  0  0
 14 15  1  0  0  0
 15 16  2  0  0  0
 16 17  1  0  0  0
 17 18  2  0  0  0
 11 19  1  0  0  0
  6 20  2  0  0  0
M  END
>  <Entry>
339

>  <title>
19-1627

>  <rigid docking scores>
-16.272

>  <InChIKey>
GAWYJQZJCPODTC-UHFFFAOYSA-N

>  <Pubchem>
110091435

$$$$
atoms 20 bonds 22
dotmatics
mol io
 20 22  0  0  0  0  0  0  0  0999 V2000
    4.3395    2.0966    0.0000 C   0  0  0  0  0  0  0  0  0  0  0  0
    4.3395    1.2696    0.0000 C   0  0  0  0  0  0  0  0  0  0  0  0
    5.0086    0.7835    0.0000 N   0  0  0  0  0  0  0  0  0  0  0  0
    4.7530   -0.0030    0.0000 C   0  0  0  0  0  0  0  0  0  0  0  0
    5.2391   -0.6721    0.0000 C   0  0  0  0  0  0  0  0  0  0  0  0
    6.0616   -0.5856    0.0000 C   0  0  0  0  0  0  0  0  0  0  0  0
    6.5477   -1.2547    0.0000 C   0  0  0  0  0  0  0  0  0  0  0  0
    6.2113   -2.0102    0.0000 N   0  0  0  0  0  0  0  0  0  0  0  0
    5.3888   -2.0966    0.0000 C   0  0  0  0  0  0  0  0  0  0  0  0
    4.9027   -1.4276    0.0000 C   0  0  0  0  0  0  0  0  0  0  0  0
    3.9260   -0.0030    0.0000 N   0  0  0  0  0  0  0  0  0  0  0  0
    3.4399   -0.6721    0.0000 C   0  0  0  0  0  0  0  0  0  0  0  0
    2.6174   -0.5856    0.0000 C   0  0  0  0  0  0  0  0  0  0  0  0
    2.1313   -1.2547    0.0000 C   0  0  0  0  0  0  0  0  0  0  0  0
    1.3089   -1.1682    0.0000 N   0  0  0  0  0  0  0  0  0  0  0  0
    0.7555   -1.7828    0.0000 C   0  0  0  0  0  0  0  0  0  0  0  0
    0.0000   -1.4464    0.0000 C   0  0  0  0  0  0  0  0  0  0  0  0
    0.0864   -0.6240    0.0000 C   0  0  0  0  0  0  0  0  0  0  0  0
    0.8954   -0.4520    0.0000 C   0  0  0  0  0  0  0  0  0  0  0  0
    3.6705    0.7835    0.0000 N   0  0  0  0  0  0  0  0  0  0  0  0
  1  2  1  0  0  0
  2 20  2  0  0  0
  2  3  1  0  0  0
  3  4  2  0  0  0
  4  5  1  0  0  0
  5 10  1  0  0  0
  5  6  2  0  0  0
  6  7  1  0  0  0
  7  8  2  0  0  0
  8  9  1  0  0  0
  9 10  2  0  0  0
  4 11  1  0  0  0
 11 12  1  0  0  0
 12 13  1  0  0  0
 13 14  1  0  0  0
 14 15  1  0  0  0
 15 19  1  0  0  0
 15 16  1  0  0  0
 16 17  1  0  0  0
 17 18  1  0  0  0
 18 19  1  0  0  0
 11 20  1  0  0  0
M  END
>  <Entry>
340

>  <title>
19-1773

>  <rigid docking scores>
-16.0914

>  <InChIKey>
MJVVEAUSHMASBU-UHFFFAOYSA-N

$$$$
atoms 25 bonds 28
dotmatics
mol io
 25 28  0  0  0  0  0  0  0  0999 V2000
    0.2615   -0.0314    0.0000 O   0  0  0  0  0  0  0  0  0  0  0  0
    0.9301    0.4553    0.0000 C   0  0  0  0  0  0  0  0  0  0  0  0
    0.8430    1.2777    0.0000 C   0  0  0  0  0  0  0  0  0  0  0  0
    0.0872    1.6134    0.0000 C   0  0  0  0  0  0  0  0  0  0  0  0
    0.0000    2.4358    0.0000 C   0  0  0  0  0  0  0  0  0  0  0  0
    0.6686    2.9225    0.0000 C   0  0  0  0  0  0  0  0  0  0  0  0
    1.4244    2.5868    0.0000 C   0  0  0  0  0  0  0  0  0  0  0  0
    1.5116    1.7644    0.0000 N   0  0  0  0  0  0  0  0  0  0  0  0
    1.6859    0.1196    0.0000 N   0  0  0  0  0  0  0  0  0  0  0  0
    2.4018    0.5337    0.0000 C   0  0  0  0  0  0  0  0  0  0  0  0
    3.0168   -0.0191    0.0000 C   0  0  0  0  0  0  0  0  0  0  0  0
    2.6811   -0.7749    0.0000 C   0  0  0  0  0  0  0  0  0  0  0  0
    3.0952   -1.4908    0.0000 C   0  0  0  0  0  0  0  0  0  0  0  0
    3.9235   -1.4908    0.0000 N   0  0  0  0  0  0  0  0  0  0  0  0
    4.3376   -2.2066    0.0000 C   0  0  0  0  0  0  0  0  0  0  0  0
    3.9235   -2.9225    0.0000 C   0  0  0  0  0  0  0  0  0  0  0  0
    3.0952   -2.9225    0.0000 N   0  0  0  0  0  0  0  0  0  0  0  0
    2.6811   -2.2066    0.0000 C   0  0  0  0  0  0  0  0  0  0  0  0
    1.8529   -2.2066    0.0000 N   0  0  0  0  0  0  0  0  0  0  0  0
    1.4387   -2.9225    0.0000 C   0  0  0  0  0  0  0  0  0  0  0  0
    0.6105   -2.9225    0.0000 C   0  0  0  0  0  0  0  0  0  0  0  0
    0.1964   -2.2066    0.0000 O   0  0  0  0  0  0  0  0  0  0  0  0
    0.6105   -1.4908    0.0000 C   0  0  0  0  0  0  0  0  0  0  0  0
    1.4387   -1.4908    0.0000 C   0  0  0  0  0  0  0  0  0  0  0  0
    1.8586   -0.6892    0.0000 C   0  0  0  0  0  0  0  0  0  0  0  0
  1  2  2  0  0  0
  2  3  1  0  0  0
  3  8  1  0  0  0
  3  4  2  0  0  0
  4  5  1  0  0  0
  5  6  2  0  0  0
  6  7  1  0  0  0
  7  8  2  0  0  0
  2  9  1  0  0  0
  9 25  1  0  0  0
  9 10  1  0  0  0
 10 11  1  0  0  0
 11 12  1  0  0  0
 12 13  1  0  0  0
 13 18  1  0  0  0
 13 14  2  0  0  0
 14 15  1  0  0  0
 15 16  2  0  0  0
 16 17  1  0  0  0
 17 18  2  0  0  0
 18 19  1  0  0  0
 19 24  1  0  0  0
 19 20  1  0  0  0
 20 21  1  0  0  0
 21 22  1  0  0  0
 22 23  1  0  0  0
 23 24  1  0  0  0
 12 25  1  0  0  0
M  END
>  <Entry>
341

>  <title>
19-2108

>  <rigid docking scores>
-17.7107

>  <InChIKey>
NXXJHNQCPRAAPG-UHFFFAOYSA-N

$$$$
atoms 23 bonds 25
dotmatics
mol io
 23 25  0  0  0  0  0  0  0  0999 V2000
    5.0134    2.4810    0.0000 C   0  0  0  0  0  0  0  0  0  0  0  0
    5.0134    1.6540    0.0000 N   0  0  0  0  0  0  0  0  0  0  0  0
    5.7296    1.2405    0.0000 C   0  0  0  0  0  0  0  0  0  0  0  0
    5.7296    0.4135    0.0000 C   0  0  0  0  0  0  0  0  0  0  0  0
    5.0134    0.0000    0.0000 N   0  0  0  0  0  0  0  0  0  0  0  0
    5.0134   -0.8270    0.0000 C   0  0  0  0  0  0  0  0  0  0  0  0
    4.2972   -1.2405    0.0000 C   0  0  0  0  0  0  0  0  0  0  0  0
    4.2972   -2.0675    0.0000 C   0  0  0  0  0  0  0  0  0  0  0  0
    3.5810   -2.4810    0.0000 C   0  0  0  0  0  0  0  0  0  0  0  0
    2.8648   -2.0675    0.0000 C   0  0  0  0  0  0  0  0  0  0  0  0
    2.8648   -1.2405    0.0000 C   0  0  0  0  0  0  0  0  0  0  0  0
    2.1486   -0.8270    0.0000 N   0  0  0  0  0  0  0  0  0  0  0  0
    2.1486    0.0000    0.0000 C   0  0  0  0  0  0  0  0  0  0  0  0
    2.8648    0.4135    0.0000 O   0  0  0  0  0  0  0  0  0  0  0  0
    1.4324    0.4135    0.0000 C   0  0  0  0  0  0  0  0  0  0  0  0
    0.7162    0.0000    0.0000 C   0  0  0  0  0  0  0  0  0  0  0  0
    0.0000    0.4135    0.0000 C   0  0  0  0  0  0  0  0  0  0  0  0
    0.0000    1.2405    0.0000 C   0  0  0  0  0  0  0  0  0  0  0  0
    0.7162    1.6540    0.0000 C   0  0  0  0  0  0  0  0  0  0  0  0
    1.4324    1.2405    0.0000 C   0  0  0  0  0  0  0  0  0  0  0  0
    3.5810   -0.8270    0.0000 C   0  0  0  0  0  0  0  0  0  0  0  0
    4.2972    0.4135    0.0000 C   0  0  0  0  0  0  0  0  0  0  0  0
    4.2972    1.2405    0.0000 C   0  0  0  0  0  0  0  0  0  0  0  0
  1  2  1  0  0  0
  2 23  1  0  0  0
  2  3  1  0  0  0
  3  4  1  0  0  0
  4  5  1  0  0  0
  5  6  1  0  0  0
  6  7  1  0  0  0
  7 21  1  0  0  0
  7  8  2  0  0  0
  8  9  1  0  0  0
  9 10  2  0  0  0
 10 11  1  0  0  0
 11 12  1  0  0  0
 12 13  1  0  0  0
 13 14  2  0  0  0
 13 15  1  0  0  0
 15 20  1  0  0  0
 15 16  2  0  0  0
 16 17  1  0  0  0
 17 18  2  0  0  0
 18 19  1  0  0  0
 19 20  2  0  0  0
 11 21  2  0  0  0
  5 22  1  0  0  0
 22 23  1  0  0  0
M  END
>  <Entry>
342

>  <title>
19-2418

>  <rigid docking scores>
-15.7693

>  <InChIKey>
VJSAYWCCBTTXDJ-UHFFFAOYSA-N

$$$$
atoms 21 bonds 23
dotmatics
mol io
 21 23  0  0  0  0  0  0  0  0999 V2000
    6.2094    0.3568    0.0000 N   0  0  0  0  0  0  0  0  0  0  0  0
    5.3824    0.3576    0.0000 C   0  0  0  0  0  0  0  0  0  0  0  0
    4.9695    1.0741    0.0000 O   0  0  0  0  0  0  0  0  0  0  0  0
    4.9682   -0.3583    0.0000 C   0  0  0  0  0  0  0  0  0  0  0  0
    5.3824   -1.0741    0.0000 C   0  0  0  0  0  0  0  0  0  0  0  0
    4.9682   -1.7900    0.0000 C   0  0  0  0  0  0  0  0  0  0  0  0
    4.1400   -1.7900    0.0000 C   0  0  0  0  0  0  0  0  0  0  0  0
    3.7259   -1.0741    0.0000 N   0  0  0  0  0  0  0  0  0  0  0  0
    2.8976   -1.0741    0.0000 C   0  0  0  0  0  0  0  0  0  0  0  0
    2.4835   -1.7900    0.0000 C   0  0  0  0  0  0  0  0  0  0  0  0
    1.6552   -1.7900    0.0000 C   0  0  0  0  0  0  0  0  0  0  0  0
    1.2411   -1.0741    0.0000 C   0  0  0  0  0  0  0  0  0  0  0  0
    1.6552   -0.3583    0.0000 C   0  0  0  0  0  0  0  0  0  0  0  0
    1.2411    0.3576    0.0000 C   0  0  0  0  0  0  0  0  0  0  0  0
    0.4141    0.3568    0.0000 C   0  0  0  0  0  0  0  0  0  0  0  0
    0.0000    1.0727    0.0000 C   0  0  0  0  0  0  0  0  0  0  0  0
    0.4129    1.7892    0.0000 C   0  0  0  0  0  0  0  0  0  0  0  0
    1.2399    1.7900    0.0000 C   0  0  0  0  0  0  0  0  0  0  0  0
    1.6540    1.0741    0.0000 N   0  0  0  0  0  0  0  0  0  0  0  0
    2.4835   -0.3583    0.0000 N   0  0  0  0  0  0  0  0  0  0  0  0
    4.1400   -0.3583    0.0000 C   0  0  0  0  0  0  0  0  0  0  0  0
  1  2  1  0  0  0
  2  3  2  0  0  0
  2  4  1  0  0  0
  4 21  1  0  0  0
  4  5  1  0  0  0
  5  6  1  0  0  0
  6  7  1  0  0  0
  7  8  1  0  0  0
  8  9  1  0  0  0
  9 20  1  0  0  0
  9 10  2  0  0  0
 10 11  1  0  0  0
 11 12  2  0  0  0
 12 13  1  0  0  0
 13 14  1  0  0  0
 14 19  1  0  0  0
 14 15  2  0  0  0
 15 16  1  0  0  0
 16 17  2  0  0  0
 17 18  1  0  0  0
 18 19  2  0  0  0
 13 20  2  0  0  0
  8 21  1  0  0  0
M  END
>  <Entry>
343

>  <title>
19-2599

>  <rigid docking scores>
-17.8389

>  <InChIKey>
MKLJWUIZBXVJKH-UHFFFAOYSA-N

$$$$
atoms 22 bonds 24
dotmatics
mol io
 22 24  0  0  0  0  0  0  0  0999 V2000
    4.3003   -2.6842    0.0000 C   0  0  0  0  0  0  0  0  0  0  0  0
    3.5844   -2.2700    0.0000 C   0  0  0  0  0  0  0  0  0  0  0  0
    2.8678   -2.6829    0.0000 O   0  0  0  0  0  0  0  0  0  0  0  0
    3.5851   -1.4430    0.0000 N   0  0  0  0  0  0  0  0  0  0  0  0
    2.8693   -1.0289    0.0000 C   0  0  0  0  0  0  0  0  0  0  0  0
    2.1534   -1.4430    0.0000 C   0  0  0  0  0  0  0  0  0  0  0  0
    1.4317   -1.0289    0.0000 C   0  0  0  0  0  0  0  0  0  0  0  0
    0.7158   -1.4430    0.0000 C   0  0  0  0  0  0  0  0  0  0  0  0
    0.0000   -1.0289    0.0000 C   0  0  0  0  0  0  0  0  0  0  0  0
    0.0000   -0.2007    0.0000 C   0  0  0  0  0  0  0  0  0  0  0  0
    0.7158    0.2135    0.0000 C   0  0  0  0  0  0  0  0  0  0  0  0
    1.4317   -0.2007    0.0000 C   0  0  0  0  0  0  0  0  0  0  0  0
    2.1534    0.2135    0.0000 N   0  0  0  0  0  0  0  0  0  0  0  0
    2.1594    1.0404    0.0000 C   0  0  0  0  0  0  0  0  0  0  0  0
    1.4461    1.4590    0.0000 O   0  0  0  0  0  0  0  0  0  0  0  0
    2.8785    1.4488    0.0000 C   0  0  0  0  0  0  0  0  0  0  0  0
    2.8844    2.2758    0.0000 C   0  0  0  0  0  0  0  0  0  0  0  0
    3.6035    2.6842    0.0000 C   0  0  0  0  0  0  0  0  0  0  0  0
    4.3168    2.2656    0.0000 C   0  0  0  0  0  0  0  0  0  0  0  0
    4.3109    1.4386    0.0000 C   0  0  0  0  0  0  0  0  0  0  0  0
    3.5917    1.0302    0.0000 C   0  0  0  0  0  0  0  0  0  0  0  0
    2.8693   -0.2007    0.0000 C   0  0  0  0  0  0  0  0  0  0  0  0
  1  2  1  0  0  0
  2  3  2  0  0  0
  2  4  1  0  0  0
  4  5  1  0  0  0
  5 22  1  0  0  0
  5  6  1  0  0  0
  6  7  1  0  0  0
  7 12  1  0  0  0
  7  8  2  0  0  0
  8  9  1  0  0  0
  9 10  2  0  0  0
 10 11  1  0  0  0
 11 12  2  0  0  0
 12 13  1  0  0  0
 13 14  1  0  0  0
 14 15  2  0  0  0
 14 16  1  0  0  0
 16 21  1  0  0  0
 16 17  2  0  0  0
 17 18  1  0  0  0
 18 19  2  0  0  0
 19 20  1  0  0  0
 20 21  2  0  0  0
 13 22  1  0  0  0
M  END
>  <Entry>
344

>  <title>
19-2701

>  <rigid docking scores>
-21.142

>  <InChIKey>
GKHSUOBXJHHWGY-UHFFFAOYSA-N

$$$$
atoms 20 bonds 22
dotmatics
mol io
 20 22  0  0  0  0  0  0  0  0999 V2000
    7.8809    1.4501    0.0000 C   0  0  0  0  0  0  0  0  0  0  0  0
    7.1651    1.0359    0.0000 N   0  0  0  0  0  0  0  0  0  0  0  0
    7.1658    0.2089    0.0000 C   0  0  0  0  0  0  0  0  0  0  0  0
    6.4499   -0.2052    0.0000 C   0  0  0  0  0  0  0  0  0  0  0  0
    5.7334    0.2077    0.0000 C   0  0  0  0  0  0  0  0  0  0  0  0
    5.0175   -0.2064    0.0000 N   0  0  0  0  0  0  0  0  0  0  0  0
    4.3010    0.2064    0.0000 C   0  0  0  0  0  0  0  0  0  0  0  0
    3.5851   -0.2077    0.0000 C   0  0  0  0  0  0  0  0  0  0  0  0
    3.5851   -1.0359    0.0000 C   0  0  0  0  0  0  0  0  0  0  0  0
    2.8693   -1.4501    0.0000 C   0  0  0  0  0  0  0  0  0  0  0  0
    2.1475   -1.0359    0.0000 C   0  0  0  0  0  0  0  0  0  0  0  0
    1.4317   -1.4501    0.0000 C   0  0  0  0  0  0  0  0  0  0  0  0
    0.7158   -1.0359    0.0000 C   0  0  0  0  0  0  0  0  0  0  0  0
    0.0000   -1.4501    0.0000 F   0  0  0  0  0  0  0  0  0  0  0  0
    0.7158   -0.2077    0.0000 C   0  0  0  0  0  0  0  0  0  0  0  0
    1.4317    0.2064    0.0000 C   0  0  0  0  0  0  0  0  0  0  0  0
    2.1475   -0.2077    0.0000 C   0  0  0  0  0  0  0  0  0  0  0  0
    2.8693    0.2064    0.0000 N   0  0  0  0  0  0  0  0  0  0  0  0
    5.7327    1.0347    0.0000 C   0  0  0  0  0  0  0  0  0  0  0  0
    6.4485    1.4488    0.0000 C   0  0  0  0  0  0  0  0  0  0  0  0
  1  2  1  0  0  0
  2 20  1  0  0  0
  2  3  1  0  0  0
  3  4  1  0  0  0
  4  5  1  0  0  0
  5  6  1  0  0  0
  6  7  1  0  0  0
  7  8  1  0  0  0
  8 18  1  0  0  0
  8  9  2  0  0  0
  9 10  1  0  0  0
 10 11  2  0  0  0
 11 17  1  0  0  0
 11 12  1  0  0  0
 12 13  2  0  0  0
 13 14  1  0  0  0
 13 15  1  0  0  0
 15 16  2  0  0  0
 16 17  1  0  0  0
 17 18  2  0  0  0
  5 19  1  0  0  0
 19 20  1  0  0  0
M  END
>  <Entry>
345

>  <title>
19-2934

>  <rigid docking scores>
-16.4347

>  <InChIKey>
SLQCUZWSRPUDIH-UHFFFAOYSA-N

$$$$
atoms 19 bonds 21
dotmatics
mol io
 19 21  0  0  0  0  0  0  0  0999 V2000
    7.1651    1.4501    0.0000 C   0  0  0  0  0  0  0  0  0  0  0  0
    6.4492    1.0359    0.0000 N   0  0  0  0  0  0  0  0  0  0  0  0
    6.4499    0.2089    0.0000 C   0  0  0  0  0  0  0  0  0  0  0  0
    5.7341   -0.2052    0.0000 C   0  0  0  0  0  0  0  0  0  0  0  0
    5.0175    0.2077    0.0000 C   0  0  0  0  0  0  0  0  0  0  0  0
    4.3017   -0.2064    0.0000 N   0  0  0  0  0  0  0  0  0  0  0  0
    3.5851    0.2064    0.0000 C   0  0  0  0  0  0  0  0  0  0  0  0
    2.8693   -0.2077    0.0000 C   0  0  0  0  0  0  0  0  0  0  0  0
    2.8693   -1.0359    0.0000 C   0  0  0  0  0  0  0  0  0  0  0  0
    2.1534   -1.4501    0.0000 C   0  0  0  0  0  0  0  0  0  0  0  0
    1.4317   -1.0359    0.0000 C   0  0  0  0  0  0  0  0  0  0  0  0
    0.7158   -1.4501    0.0000 C   0  0  0  0  0  0  0  0  0  0  0  0
    0.0000   -1.0359    0.0000 C   0  0  0  0  0  0  0  0  0  0  0  0
    0.0000   -0.2077    0.0000 C   0  0  0  0  0  0  0  0  0  0  0  0
    0.7158    0.2064    0.0000 C   0  0  0  0  0  0  0  0  0  0  0  0
    1.4317   -0.2077    0.0000 C   0  0  0  0  0  0  0  0  0  0  0  0
    2.1534    0.2064    0.0000 N   0  0  0  0  0  0  0  0  0  0  0  0
    5.0168    1.0347    0.0000 C   0  0  0  0  0  0  0  0  0  0  0  0
    5.7327    1.4488    0.0000 C   0  0  0  0  0  0  0  0  0  0  0  0
  1  2  1  0  0  0
  2 19  1  0  0  0
  2  3  1  0  0  0
  3  4  1  0  0  0
  4  5  1  0  0  0
  5  6  1  0  0  0
  6  7  1  0  0  0
  7  8  1  0  0  0
  8 17  1  0  0  0
  8  9  2  0  0  0
  9 10  1  0  0  0
 10 11  2  0  0  0
 11 16  1  0  0  0
 11 12  1  0  0  0
 12 13  2  0  0  0
 13 14  1  0  0  0
 14 15  2  0  0  0
 15 16  1  0  0  0
 16 17  2  0  0  0
  5 18  1  0  0  0
 18 19  1  0  0  0
M  END
>  <Entry>
346

>  <title>
19-2935

>  <rigid docking scores>
-16.1076

>  <InChIKey>
DGVDGFMACPEGID-UHFFFAOYSA-N

>  <Pubchem>
43216424

$$$$
atoms 21 bonds 23
dotmatics
mol io
 21 23  0  0  0  0  0  0  0  0999 V2000
    6.2687    1.9397    0.0000 C   0  0  0  0  0  0  0  0  0  0  0  0
    6.2687    1.1127    0.0000 C   0  0  0  0  0  0  0  0  0  0  0  0
    6.9378    0.6266    0.0000 C   0  0  0  0  0  0  0  0  0  0  0  0
    6.6823   -0.1599    0.0000 N   0  0  0  0  0  0  0  0  0  0  0  0
    5.8552   -0.1599    0.0000 C   0  0  0  0  0  0  0  0  0  0  0  0
    5.3692   -0.8290    0.0000 N   0  0  0  0  0  0  0  0  0  0  0  0
    4.5467   -0.7425    0.0000 C   0  0  0  0  0  0  0  0  0  0  0  0
    4.2103    0.0130    0.0000 O   0  0  0  0  0  0  0  0  0  0  0  0
    4.0606   -1.4116    0.0000 C   0  0  0  0  0  0  0  0  0  0  0  0
    3.2381   -1.3251    0.0000 C   0  0  0  0  0  0  0  0  0  0  0  0
    2.6847   -1.9397    0.0000 C   0  0  0  0  0  0  0  0  0  0  0  0
    1.9292   -1.6033    0.0000 O   0  0  0  0  0  0  0  0  0  0  0  0
    2.0157   -0.7809    0.0000 C   0  0  0  0  0  0  0  0  0  0  0  0
    1.4011   -0.2275    0.0000 C   0  0  0  0  0  0  0  0  0  0  0  0
    0.6146   -0.4831    0.0000 C   0  0  0  0  0  0  0  0  0  0  0  0
    0.0000    0.0703    0.0000 C   0  0  0  0  0  0  0  0  0  0  0  0
    0.1719    0.8792    0.0000 C   0  0  0  0  0  0  0  0  0  0  0  0
    0.9585    1.1348    0.0000 C   0  0  0  0  0  0  0  0  0  0  0  0
    1.5730    0.5814    0.0000 C   0  0  0  0  0  0  0  0  0  0  0  0
    2.8246   -0.6089    0.0000 N   0  0  0  0  0  0  0  0  0  0  0  0
    5.5997    0.6266    0.0000 S   0  0  0  0  0  0  0  0  0  0  0  0
  1  2  1  0  0  0
  2 21  1  0  0  0
  2  3  2  0  0  0
  3  4  1  0  0  0
  4  5  2  0  0  0
  5  6  1  0  0  0
  6  7  1  0  0  0
  7  8  2  0  0  0
  7  9  1  0  0  0
  9 10  1  0  0  0
 10 20  1  0  0  0
 10 11  2  0  0  0
 11 12  1  0  0  0
 12 13  1  0  0  0
 13 14  1  0  0  0
 14 19  1  0  0  0
 14 15  2  0  0  0
 15 16  1  0  0  0
 16 17  2  0  0  0
 17 18  1  0  0  0
 18 19  2  0  0  0
 13 20  2  0  0  0
  5 21  1  0  0  0
M  END
>  <Entry>
347

>  <title>
19-3075

>  <rigid docking scores>
-17.3483

>  <InChIKey>
OBNFQUVJHAFCAT-UHFFFAOYSA-N

>  <Pubchem>
34808324

$$$$
atoms 20 bonds 22
dotmatics
mol io
 20 22  0  0  0  0  0  0  0  0999 V2000
    4.7806   -1.8600    0.0000 N   0  0  0  0  0  0  0  0  0  0  0  0
    5.3365   -1.2476    0.0000 C   0  0  0  0  0  0  0  0  0  0  0  0
    6.1447   -1.4228    0.0000 O   0  0  0  0  0  0  0  0  0  0  0  0
    5.0841   -0.4601    0.0000 C   0  0  0  0  0  0  0  0  0  0  0  0
    5.5751    0.2085    0.0000 C   0  0  0  0  0  0  0  0  0  0  0  0
    5.0841    0.8770    0.0000 N   0  0  0  0  0  0  0  0  0  0  0  0
    4.2972    0.6226    0.0000 N   0  0  0  0  0  0  0  0  0  0  0  0
    4.2972   -0.2057    0.0000 C   0  0  0  0  0  0  0  0  0  0  0  0
    3.5814   -0.6198    0.0000 C   0  0  0  0  0  0  0  0  0  0  0  0
    2.8655   -0.2057    0.0000 N   0  0  0  0  0  0  0  0  0  0  0  0
    2.1497   -0.6198    0.0000 C   0  0  0  0  0  0  0  0  0  0  0  0
    1.4331   -0.2069    0.0000 C   0  0  0  0  0  0  0  0  0  0  0  0
    0.7173   -0.6210    0.0000 C   0  0  0  0  0  0  0  0  0  0  0  0
    0.0007   -0.2082    0.0000 C   0  0  0  0  0  0  0  0  0  0  0  0
    0.0000    0.6188    0.0000 C   0  0  0  0  0  0  0  0  0  0  0  0
    0.7158    1.0330    0.0000 C   0  0  0  0  0  0  0  0  0  0  0  0
    0.7151    1.8600    0.0000 Cl  0  0  0  0  0  0  0  0  0  0  0  0
    1.4324    0.6201    0.0000 C   0  0  0  0  0  0  0  0  0  0  0  0
    2.8655    0.6226    0.0000 C   0  0  0  0  0  0  0  0  0  0  0  0
    3.5814    1.0367    0.0000 C   0  0  0  0  0  0  0  0  0  0  0  0
  1  2  1  0  0  0
  2  3  2  0  0  0
  2  4  1  0  0  0
  4  8  2  0  0  0
  4  5  1  0  0  0
  5  6  2  0  0  0
  6  7  1  0  0  0
  7 20  1  0  0  0
  7  8  1  0  0  0
  8  9  1  0  0  0
  9 10  1  0  0  0
 10 11  1  0  0  0
 11 12  1  0  0  0
 12 18  1  0  0  0
 12 13  2  0  0  0
 13 14  1  0  0  0
 14 15  2  0  0  0
 15 16  1  0  0  0
 16 17  1  0  0  0
 16 18  2  0  0  0
 10 19  1  0  0  0
 19 20  1  0  0  0
M  END
>  <Entry>
348

>  <title>
19-3268

>  <rigid docking scores>
-16.3456

>  <InChIKey>
GGTIQEQNHXVMID-UHFFFAOYSA-N

$$$$
atoms 20 bonds 22
dotmatics
mol io
 20 22  0  0  0  0  0  0  0  0999 V2000
    6.2178    0.6929    0.0000 C   0  0  0  0  0  0  0  0  0  0  0  0
    6.9340    0.2794    0.0000 C   0  0  0  0  0  0  0  0  0  0  0  0
    6.9340   -0.5476    0.0000 N   0  0  0  0  0  0  0  0  0  0  0  0
    6.2178   -0.9611    0.0000 C   0  0  0  0  0  0  0  0  0  0  0  0
    5.5016   -0.5476    0.0000 C   0  0  0  0  0  0  0  0  0  0  0  0
    4.7854   -0.9611    0.0000 C   0  0  0  0  0  0  0  0  0  0  0  0
    4.6990   -1.7836    0.0000 C   0  0  0  0  0  0  0  0  0  0  0  0
    3.8900   -1.9556    0.0000 S   0  0  0  0  0  0  0  0  0  0  0  0
    3.4765   -1.2393    0.0000 C   0  0  0  0  0  0  0  0  0  0  0  0
    2.6541   -1.1529    0.0000 N   0  0  0  0  0  0  0  0  0  0  0  0
    2.3177   -0.3974    0.0000 C   0  0  0  0  0  0  0  0  0  0  0  0
    1.4952   -0.3110    0.0000 C   0  0  0  0  0  0  0  0  0  0  0  0
    1.1588    0.4445    0.0000 N   0  0  0  0  0  0  0  0  0  0  0  0
    0.3364    0.5310    0.0000 C   0  0  0  0  0  0  0  0  0  0  0  0
    0.0000    1.2865    0.0000 C   0  0  0  0  0  0  0  0  0  0  0  0
    0.4861    1.9556    0.0000 O   0  0  0  0  0  0  0  0  0  0  0  0
    1.3086    1.8691    0.0000 C   0  0  0  0  0  0  0  0  0  0  0  0
    1.6449    1.1136    0.0000 C   0  0  0  0  0  0  0  0  0  0  0  0
    4.0299   -0.6248    0.0000 N   0  0  0  0  0  0  0  0  0  0  0  0
    5.5016    0.2794    0.0000 C   0  0  0  0  0  0  0  0  0  0  0  0
  1 20  1  0  0  0
  1  2  2  0  0  0
  2  3  1  0  0  0
  3  4  2  0  0  0
  4  5  1  0  0  0
  5  6  1  0  0  0
  6 19  1  0  0  0
  6  7  2  0  0  0
  7  8  1  0  0  0
  8  9  1  0  0  0
  9 10  1  0  0  0
 10 11  1  0  0  0
 11 12  1  0  0  0
 12 13  1  0  0  0
 13 18  1  0  0  0
 13 14  1  0  0  0
 14 15  1  0  0  0
 15 16  1  0  0  0
 16 17  1  0  0  0
 17 18  1  0  0  0
  9 19  2  0  0  0
  5 20  2  0  0  0
M  END
>  <Entry>
349

>  <title>
19-3396

>  <rigid docking scores>
-19.8967

>  <InChIKey>
JQFRREHFUWQQJH-UHFFFAOYSA-N

>  <Pubchem>
136574664

$$$$
atoms 20 bonds 22
dotmatics
mol io
 20 22  0  0  0  0  0  0  0  0999 V2000
    1.4520   -2.3621    0.0000 C   0  0  0  0  0  0  0  0  0  0  0  0
    1.4461   -1.5351    0.0000 N   0  0  0  0  0  0  0  0  0  0  0  0
    2.1594   -1.1165    0.0000 C   0  0  0  0  0  0  0  0  0  0  0  0
    2.8785   -1.5249    0.0000 O   0  0  0  0  0  0  0  0  0  0  0  0
    2.1534   -0.2896    0.0000 C   0  0  0  0  0  0  0  0  0  0  0  0
    2.8693    0.1246    0.0000 C   0  0  0  0  0  0  0  0  0  0  0  0
    3.5851   -0.2896    0.0000 C   0  0  0  0  0  0  0  0  0  0  0  0
    2.8693    0.9528    0.0000 C   0  0  0  0  0  0  0  0  0  0  0  0
    3.5851    1.3669    0.0000 N   0  0  0  0  0  0  0  0  0  0  0  0
    3.6709    2.1895    0.0000 C   0  0  0  0  0  0  0  0  0  0  0  0
    4.4796    2.3621    0.0000 C   0  0  0  0  0  0  0  0  0  0  0  0
    4.8938    1.6463    0.0000 C   0  0  0  0  0  0  0  0  0  0  0  0
    4.3409    1.0312    0.0000 C   0  0  0  0  0  0  0  0  0  0  0  0
    2.1534    1.3669    0.0000 N   0  0  0  0  0  0  0  0  0  0  0  0
    1.4317    0.9528    0.0000 C   0  0  0  0  0  0  0  0  0  0  0  0
    0.7158    1.3669    0.0000 C   0  0  0  0  0  0  0  0  0  0  0  0
    0.0000    0.9528    0.0000 C   0  0  0  0  0  0  0  0  0  0  0  0
    0.0000    0.1246    0.0000 C   0  0  0  0  0  0  0  0  0  0  0  0
    0.7158   -0.2896    0.0000 C   0  0  0  0  0  0  0  0  0  0  0  0
    1.4317    0.1246    0.0000 C   0  0  0  0  0  0  0  0  0  0  0  0
  1  2  1  0  0  0
  2  3  1  0  0  0
  3  4  2  0  0  0
  3  5  1  0  0  0
  5 20  1  0  0  0
  5  6  2  0  0  0
  6  7  1  0  0  0
  6  8  1  0  0  0
  8  9  1  0  0  0
  9 13  1  0  0  0
  9 10  1  0  0  0
 10 11  1  0  0  0
 11 12  1  0  0  0
 12 13  1  0  0  0
  8 14  2  0  0  0
 14 15  1  0  0  0
 15 20  1  0  0  0
 15 16  2  0  0  0
 16 17  1  0  0  0
 17 18  2  0  0  0
 18 19  1  0  0  0
 19 20  2  0  0  0
M  END
>  <Entry>
350

>  <title>
19-3435

>  <rigid docking scores>
-15.7881

>  <InChIKey>
SCEXORALZVAHFF-UHFFFAOYSA-N

$$$$
atoms 19 bonds 20
dotmatics
mol io
 19 20  0  0  0  0  0  0  0  0999 V2000
    5.0134    1.4473    0.0000 N   0  0  0  0  0  0  0  0  0  0  0  0
    4.2972    1.0338    0.0000 C   0  0  0  0  0  0  0  0  0  0  0  0
    3.5810    1.4473    0.0000 O   0  0  0  0  0  0  0  0  0  0  0  0
    4.2972    0.2068    0.0000 C   0  0  0  0  0  0  0  0  0  0  0  0
    5.0134   -0.2068    0.0000 C   0  0  0  0  0  0  0  0  0  0  0  0
    5.0134   -1.0338    0.0000 C   0  0  0  0  0  0  0  0  0  0  0  0
    4.2972   -1.4473    0.0000 C   0  0  0  0  0  0  0  0  0  0  0  0
    3.5810   -1.0338    0.0000 C   0  0  0  0  0  0  0  0  0  0  0  0
    3.5810   -0.2068    0.0000 C   0  0  0  0  0  0  0  0  0  0  0  0
    2.8648    0.2068    0.0000 N   0  0  0  0  0  0  0  0  0  0  0  0
    2.1486   -0.2068    0.0000 C   0  0  0  0  0  0  0  0  0  0  0  0
    2.1486   -1.0338    0.0000 O   0  0  0  0  0  0  0  0  0  0  0  0
    1.4324    0.2067    0.0000 C   0  0  0  0  0  0  0  0  0  0  0  0
    1.4324    1.0337    0.0000 C   0  0  0  0  0  0  0  0  0  0  0  0
    0.7162    1.4472    0.0000 C   0  0  0  0  0  0  0  0  0  0  0  0
    0.0000    1.0337    0.0000 C   0  0  0  0  0  0  0  0  0  0  0  0
    0.0000    0.2068    0.0000 C   0  0  0  0  0  0  0  0  0  0  0  0
    0.7162   -0.2068    0.0000 C   0  0  0  0  0  0  0  0  0  0  0  0
    0.7162   -1.0338    0.0000 F   0  0  0  0  0  0  0  0  0  0  0  0
  1  2  1  0  0  0
  2  3  2  0  0  0
  2  4  1  0  0  0
  4  9  1  0  0  0
  4  5  2  0  0  0
  5  6  1  0  0  0
  6  7  2  0  0  0
  7  8  1  0  0  0
  8  9  2  0  0  0
  9 10  1  0  0  0
 10 11  1  0  0  0
 11 12  2  0  0  0
 11 13  1  0  0  0
 13 18  1  0  0  0
 13 14  2  0  0  0
 14 15  1  0  0  0
 15 16  2  0  0  0
 16 17  1  0  0  0
 17 18  2  0  0  0
 18 19  1  0  0  0
M  END
>  <Entry>
351

>  <title>
19-3541

>  <rigid docking scores>
-16.6256

>  <InChIKey>
ODODUFCDFDQOGF-UHFFFAOYSA-N

>  <ChEMBL>
CHEMBL1325582

>  <ZINC>
ZINC000000446365

>  <eMolecules>
2115891

>  <SureChEMBL Patents>
SCHEMBL4716633

>  <Pubchem>
877411

>  <Mcule>
MCULE-2959369055

>  <MolPort>
MolPort-002-798-092

$$$$
atoms 21 bonds 23
dotmatics
mol io
 21 23  0  0  0  0  0  0  0  0999 V2000
    7.6426   -0.3027    0.0000 C   0  0  0  0  0  0  0  0  0  0  0  0
    6.8156   -0.3027    0.0000 C   0  0  0  0  0  0  0  0  0  0  0  0
    6.4021   -1.0189    0.0000 O   0  0  0  0  0  0  0  0  0  0  0  0
    6.4021    0.4135    0.0000 N   0  0  0  0  0  0  0  0  0  0  0  0
    5.5751    0.4135    0.0000 C   0  0  0  0  0  0  0  0  0  0  0  0
    5.0841   -0.2550    0.0000 N   0  0  0  0  0  0  0  0  0  0  0  0
    4.2972   -0.0006    0.0000 C   0  0  0  0  0  0  0  0  0  0  0  0
    4.2972    0.8276    0.0000 C   0  0  0  0  0  0  0  0  0  0  0  0
    5.0841    1.0820    0.0000 S   0  0  0  0  0  0  0  0  0  0  0  0
    3.5814    1.2417    0.0000 C   0  0  0  0  0  0  0  0  0  0  0  0
    2.8655    0.8276    0.0000 C   0  0  0  0  0  0  0  0  0  0  0  0
    2.8655   -0.0006    0.0000 N   0  0  0  0  0  0  0  0  0  0  0  0
    2.1497   -0.4147    0.0000 C   0  0  0  0  0  0  0  0  0  0  0  0
    2.1504   -1.2417    0.0000 O   0  0  0  0  0  0  0  0  0  0  0  0
    1.4331   -0.0019    0.0000 C   0  0  0  0  0  0  0  0  0  0  0  0
    0.7173   -0.4160    0.0000 C   0  0  0  0  0  0  0  0  0  0  0  0
    0.0007   -0.0031    0.0000 C   0  0  0  0  0  0  0  0  0  0  0  0
    0.0000    0.8239    0.0000 C   0  0  0  0  0  0  0  0  0  0  0  0
    0.7158    1.2380    0.0000 C   0  0  0  0  0  0  0  0  0  0  0  0
    1.4324    0.8251    0.0000 C   0  0  0  0  0  0  0  0  0  0  0  0
    3.5814   -0.4147    0.0000 C   0  0  0  0  0  0  0  0  0  0  0  0
  1  2  1  0  0  0
  2  3  2  0  0  0
  2  4  1  0  0  0
  4  5  1  0  0  0
  5  9  1  0  0  0
  5  6  2  0  0  0
  6  7  1  0  0  0
  7 21  1  0  0  0
  7  8  2  0  0  0
  8  9  1  0  0  0
  8 10  1  0  0  0
 10 11  1  0  0  0
 11 12  1  0  0  0
 12 13  1  0  0  0
 13 14  2  0  0  0
 13 15  1  0  0  0
 15 20  1  0  0  0
 15 16  2  0  0  0
 16 17  1  0  0  0
 17 18  2  0  0  0
 18 19  1  0  0  0
 19 20  2  0  0  0
 12 21  1  0  0  0
M  END
>  <Entry>
352

>  <title>
19-3633

>  <rigid docking scores>
-16.0352

>  <InChIKey>
BVXMYUHWUBIUSR-UHFFFAOYSA-N

$$$$
atoms 21 bonds 23
dotmatics
mol io
 21 23  0  0  0  0  0  0  0  0999 V2000
    6.4914    1.7377    0.0000 O   0  0  0  0  0  0  0  0  0  0  0  0
    6.4914    0.9107    0.0000 C   0  0  0  0  0  0  0  0  0  0  0  0
    7.2076    0.4972    0.0000 C   0  0  0  0  0  0  0  0  0  0  0  0
    7.2076   -0.3298    0.0000 C   0  0  0  0  0  0  0  0  0  0  0  0
    6.4914   -0.7433    0.0000 C   0  0  0  0  0  0  0  0  0  0  0  0
    5.7752   -0.3298    0.0000 C   0  0  0  0  0  0  0  0  0  0  0  0
    5.0590   -0.7433    0.0000 C   0  0  0  0  0  0  0  0  0  0  0  0
    4.3428   -0.3298    0.0000 N   0  0  0  0  0  0  0  0  0  0  0  0
    3.6266   -0.7433    0.0000 C   0  0  0  0  0  0  0  0  0  0  0  0
    3.5401   -1.5658    0.0000 C   0  0  0  0  0  0  0  0  0  0  0  0
    2.7312   -1.7377    0.0000 C   0  0  0  0  0  0  0  0  0  0  0  0
    2.3177   -1.0215    0.0000 N   0  0  0  0  0  0  0  0  0  0  0  0
    1.4952   -0.9351    0.0000 C   0  0  0  0  0  0  0  0  0  0  0  0
    1.1588   -0.1796    0.0000 C   0  0  0  0  0  0  0  0  0  0  0  0
    0.3364   -0.0931    0.0000 C   0  0  0  0  0  0  0  0  0  0  0  0
    0.0000    0.6624    0.0000 C   0  0  0  0  0  0  0  0  0  0  0  0
    0.4861    1.3314    0.0000 C   0  0  0  0  0  0  0  0  0  0  0  0
    1.3086    1.2450    0.0000 C   0  0  0  0  0  0  0  0  0  0  0  0
    1.6449    0.4895    0.0000 C   0  0  0  0  0  0  0  0  0  0  0  0
    2.8711   -0.4069    0.0000 C   0  0  0  0  0  0  0  0  0  0  0  0
    5.7752    0.4972    0.0000 C   0  0  0  0  0  0  0  0  0  0  0  0
  1  2  1  0  0  0
  2 21  1  0  0  0
  2  3  2  0  0  0
  3  4  1  0  0  0
  4  5  2  0  0  0
  5  6  1  0  0  0
  6  7  1  0  0  0
  7  8  1  0  0  0
  8  9  1  0  0  0
  9 20  1  0  0  0
  9 10  1  0  0  0
 10 11  1  0  0  0
 11 12  1  0  0  0
 12 13  1  0  0  0
 13 14  1  0  0  0
 14 19  1  0  0  0
 14 15  2  0  0  0
 15 16  1  0  0  0
 16 17  2  0  0  0
 17 18  1  0  0  0
 18 19  2  0  0  0
 12 20  1  0  0  0
  6 21  2  0  0  0
M  END
>  <Entry>
353

>  <title>
19-3752

>  <rigid docking scores>
-18.0417

>  <InChIKey>
KUFZNXAHKANDSM-UHFFFAOYSA-N

>  <Pubchem>
43221366

$$$$
atoms 24 bonds 26
dotmatics
mol io
 24 26  0  0  0  0  0  0  0  0999 V2000
    9.1032   -1.0743    0.0000 C   0  0  0  0  0  0  0  0  0  0  0  0
    8.6897   -0.3581    0.0000 O   0  0  0  0  0  0  0  0  0  0  0  0
    7.8627   -0.3581    0.0000 C   0  0  0  0  0  0  0  0  0  0  0  0
    7.4492   -1.0743    0.0000 C   0  0  0  0  0  0  0  0  0  0  0  0
    6.6222   -1.0743    0.0000 C   0  0  0  0  0  0  0  0  0  0  0  0
    6.2087   -0.3581    0.0000 C   0  0  0  0  0  0  0  0  0  0  0  0
    5.3817   -0.3581    0.0000 C   0  0  0  0  0  0  0  0  0  0  0  0
    4.9682   -1.0743    0.0000 O   0  0  0  0  0  0  0  0  0  0  0  0
    4.9682    0.3581    0.0000 N   0  0  0  0  0  0  0  0  0  0  0  0
    4.1412    0.3581    0.0000 C   0  0  0  0  0  0  0  0  0  0  0  0
    3.7271   -0.3577    0.0000 C   0  0  0  0  0  0  0  0  0  0  0  0
    2.8989   -0.3577    0.0000 C   0  0  0  0  0  0  0  0  0  0  0  0
    2.4847    0.3581    0.0000 C   0  0  0  0  0  0  0  0  0  0  0  0
    1.6565    0.3581    0.0000 N   0  0  0  0  0  0  0  0  0  0  0  0
    1.2424   -0.3577    0.0000 C   0  0  0  0  0  0  0  0  0  0  0  0
    0.4141   -0.3577    0.0000 C   0  0  0  0  0  0  0  0  0  0  0  0
    0.0000    0.3581    0.0000 N   0  0  0  0  0  0  0  0  0  0  0  0
    0.4141    1.0739    0.0000 C   0  0  0  0  0  0  0  0  0  0  0  0
    1.2424    1.0739    0.0000 C   0  0  0  0  0  0  0  0  0  0  0  0
    2.8989    1.0739    0.0000 C   0  0  0  0  0  0  0  0  0  0  0  0
    3.7271    1.0739    0.0000 C   0  0  0  0  0  0  0  0  0  0  0  0
    6.6222    0.3581    0.0000 C   0  0  0  0  0  0  0  0  0  0  0  0
    7.4492    0.3581    0.0000 C   0  0  0  0  0  0  0  0  0  0  0  0
    7.8627    1.0743    0.0000 O   0  0  0  0  0  0  0  0  0  0  0  0
  1  2  1  0  0  0
  2  3  1  0  0  0
  3 23  1  0  0  0
  3  4  2  0  0  0
  4  5  1  0  0  0
  5  6  2  0  0  0
  6  7  1  0  0  0
  7  8  2  0  0  0
  7  9  1  0  0  0
  9 10  1  0  0  0
 10 21  1  0  0  0
 10 11  2  0  0  0
 11 12  1  0  0  0
 12 13  2  0  0  0
 13 14  1  0  0  0
 14 19  1  0  0  0
 14 15  1  0  0  0
 15 16  1  0  0  0
 16 17  1  0  0  0
 17 18  1  0  0  0
 18 19  1  0  0  0
 13 20  1  0  0  0
 20 21  2  0  0  0
  6 22  1  0  0  0
 22 23  2  0  0  0
 23 24  1  0  0  0
M  END
>  <Entry>
354

>  <title>
19-4144

>  <rigid docking scores>
-15.3208

>  <InChIKey>
GSMOFLGPLLQKHV-UHFFFAOYSA-N

$$$$
atoms 24 bonds 27
dotmatics
mol io
 24 27  0  0  0  0  0  0  0  0999 V2000
    7.4061    1.8732    0.0000 C   0  0  0  0  0  0  0  0  0  0  0  0
    7.4925    1.0508    0.0000 C   0  0  0  0  0  0  0  0  0  0  0  0
    8.2480    0.7144    0.0000 C   0  0  0  0  0  0  0  0  0  0  0  0
    8.3345   -0.1081    0.0000 C   0  0  0  0  0  0  0  0  0  0  0  0
    7.6654   -0.5942    0.0000 C   0  0  0  0  0  0  0  0  0  0  0  0
    6.9099   -0.2578    0.0000 C   0  0  0  0  0  0  0  0  0  0  0  0
    6.2409   -0.7439    0.0000 C   0  0  0  0  0  0  0  0  0  0  0  0
    6.2409   -1.5709    0.0000 N   0  0  0  0  0  0  0  0  0  0  0  0
    5.4543   -1.8265    0.0000 S   0  0  0  0  0  0  0  0  0  0  0  0
    4.9682   -1.1574    0.0000 C   0  0  0  0  0  0  0  0  0  0  0  0
    4.1412   -1.1574    0.0000 N   0  0  0  0  0  0  0  0  0  0  0  0
    3.7271   -1.8732    0.0000 C   0  0  0  0  0  0  0  0  0  0  0  0
    2.8989   -1.8732    0.0000 C   0  0  0  0  0  0  0  0  0  0  0  0
    2.4847   -1.1574    0.0000 N   0  0  0  0  0  0  0  0  0  0  0  0
    1.6565   -1.1574    0.0000 C   0  0  0  0  0  0  0  0  0  0  0  0
    1.2424   -1.8732    0.0000 C   0  0  0  0  0  0  0  0  0  0  0  0
    0.4141   -1.8732    0.0000 C   0  0  0  0  0  0  0  0  0  0  0  0
    0.0000   -1.1574    0.0000 O   0  0  0  0  0  0  0  0  0  0  0  0
    0.4141   -0.4416    0.0000 C   0  0  0  0  0  0  0  0  0  0  0  0
    1.2424   -0.4416    0.0000 C   0  0  0  0  0  0  0  0  0  0  0  0
    2.8989   -0.4416    0.0000 C   0  0  0  0  0  0  0  0  0  0  0  0
    3.7271   -0.4416    0.0000 C   0  0  0  0  0  0  0  0  0  0  0  0
    5.4543   -0.4883    0.0000 N   0  0  0  0  0  0  0  0  0  0  0  0
    6.8235    0.5647    0.0000 C   0  0  0  0  0  0  0  0  0  0  0  0
  1  2  1  0  0  0
  2 24  1  0  0  0
  2  3  2  0  0  0
  3  4  1  0  0  0
  4  5  2  0  0  0
  5  6  1  0  0  0
  6  7  1  0  0  0
  7 23  1  0  0  0
  7  8  2  0  0  0
  8  9  1  0  0  0
  9 10  1  0  0  0
 10 11  1  0  0  0
 11 22  1  0  0  0
 11 12  1  0  0  0
 12 13  1  0  0  0
 13 14  1  0  0  0
 14 15  1  0  0  0
 15 20  1  0  0  0
 15 16  1  0  0  0
 16 17  1  0  0  0
 17 18  1  0  0  0
 18 19  1  0  0  0
 19 20  1  0  0  0
 14 21  1  0  0  0
 21 22  1  0  0  0
 10 23  2  0  0  0
  6 24  2  0  0  0
M  END
>  <Entry>
355

>  <title>
19-5032

>  <rigid docking scores>
-18.8702

>  <InChIKey>
RGXSBKDFUFHROQ-UHFFFAOYSA-N

$$$$
atoms 19 bonds 21
dotmatics
mol io
 19 21  0  0  0  0  0  0  0  0999 V2000
   -0.9316    2.5860    0.0000 C   0  0  0  0  0  0  0  0  0  0  0  0
   -0.1046    2.5860    0.0000 C   0  0  0  0  0  0  0  0  0  0  0  0
    0.3815    3.2550    0.0000 O   0  0  0  0  0  0  0  0  0  0  0  0
    1.1681    2.9995    0.0000 C   0  0  0  0  0  0  0  0  0  0  0  0
    1.8371    3.4856    0.0000 C   0  0  0  0  0  0  0  0  0  0  0  0
    1.8371    4.3126    0.0000 C   0  0  0  0  0  0  0  0  0  0  0  0
    2.6236    4.5681    0.0000 C   0  0  0  0  0  0  0  0  0  0  0  0
    3.1097    3.8991    0.0000 S   0  0  0  0  0  0  0  0  0  0  0  0
    2.6236    3.2300    0.0000 C   0  0  0  0  0  0  0  0  0  0  0  0
    1.1681    2.1725    0.0000 N   0  0  0  0  0  0  0  0  0  0  0  0
    0.3815    1.9169    0.0000 C   0  0  0  0  0  0  0  0  0  0  0  0
    0.1260    1.1304    0.0000 C   0  0  0  0  0  0  0  0  0  0  0  0
   -0.6830    0.9585    0.0000 N   0  0  0  0  0  0  0  0  0  0  0  0
   -0.9385    0.1719    0.0000 C   0  0  0  0  0  0  0  0  0  0  0  0
   -1.7474    0.0000    0.0000 C   0  0  0  0  0  0  0  0  0  0  0  0
   -2.3008    0.6146    0.0000 N   0  0  0  0  0  0  0  0  0  0  0  0
   -3.1097    0.4426    0.0000 C   0  0  0  0  0  0  0  0  0  0  0  0
   -2.0453    1.4011    0.0000 C   0  0  0  0  0  0  0  0  0  0  0  0
   -1.2363    1.5730    0.0000 C   0  0  0  0  0  0  0  0  0  0  0  0
  1  2  1  0  0  0
  2 11  2  0  0  0
  2  3  1  0  0  0
  3  4  1  0  0  0
  4  5  1  0  0  0
  5  9  2  0  0  0
  5  6  1  0  0  0
  6  7  2  0  0  0
  7  8  1  0  0  0
  8  9  1  0  0  0
  4 10  2  0  0  0
 10 11  1  0  0  0
 11 12  1  0  0  0
 12 13  1  0  0  0
 13 19  1  0  0  0
 13 14  1  0  0  0
 14 15  1  0  0  0
 15 16  1  0  0  0
 16 17  1  0  0  0
 16 18  1  0  0  0
 18 19  1  0  0  0
M  END
>  <Entry>
356

>  <title>
19-5101

>  <rigid docking scores>
-15.8093

>  <InChIKey>
UMEUDXBJSCGIMW-UHFFFAOYSA-N

$$$$
atoms 20 bonds 22
dotmatics
mol io
 20 22  0  0  0  0  0  0  0  0999 V2000
   -3.2612    4.1779    0.0000 C   0  0  0  0  0  0  0  0  0  0  0  0
   -2.4342    4.1779    0.0000 C   0  0  0  0  0  0  0  0  0  0  0  0
   -1.9481    4.8470    0.0000 C   0  0  0  0  0  0  0  0  0  0  0  0
   -1.1615    4.5914    0.0000 C   0  0  0  0  0  0  0  0  0  0  0  0
   -1.1615    3.7644    0.0000 C   0  0  0  0  0  0  0  0  0  0  0  0
   -0.4925    3.2783    0.0000 C   0  0  0  0  0  0  0  0  0  0  0  0
    0.2941    3.5339    0.0000 N   0  0  0  0  0  0  0  0  0  0  0  0
    0.7802    2.8648    0.0000 C   0  0  0  0  0  0  0  0  0  0  0  0
    1.6072    2.8648    0.0000 C   0  0  0  0  0  0  0  0  0  0  0  0
    2.0207    2.1486    0.0000 N   0  0  0  0  0  0  0  0  0  0  0  0
    2.8477    2.1486    0.0000 C   0  0  0  0  0  0  0  0  0  0  0  0
    3.2612    1.4324    0.0000 C   0  0  0  0  0  0  0  0  0  0  0  0
    2.8477    0.7162    0.0000 N   0  0  0  0  0  0  0  0  0  0  0  0
    3.2612   -0.0000    0.0000 C   0  0  0  0  0  0  0  0  0  0  0  0
    2.0207    0.7162    0.0000 C   0  0  0  0  0  0  0  0  0  0  0  0
    1.6072    1.4324    0.0000 C   0  0  0  0  0  0  0  0  0  0  0  0
    0.2941    2.1958    0.0000 C   0  0  0  0  0  0  0  0  0  0  0  0
    0.5496    1.4092    0.0000 C   0  0  0  0  0  0  0  0  0  0  0  0
   -0.4925    2.4513    0.0000 O   0  0  0  0  0  0  0  0  0  0  0  0
   -1.9481    3.5089    0.0000 O   0  0  0  0  0  0  0  0  0  0  0  0
  1  2  1  0  0  0
  2 20  1  0  0  0
  2  3  2  0  0  0
  3  4  1  0  0  0
  4  5  2  0  0  0
  5  6  1  0  0  0
  6 19  1  0  0  0
  6  7  2  0  0  0
  7  8  1  0  0  0
  8  9  1  0  0  0
  9 10  1  0  0  0
 10 16  1  0  0  0
 10 11  1  0  0  0
 11 12  1  0  0  0
 12 13  1  0  0  0
 13 14  1  0  0  0
 13 15  1  0  0  0
 15 16  1  0  0  0
  8 17  2  0  0  0
 17 18  1  0  0  0
 17 19  1  0  0  0
  5 20  1  0  0  0
M  END
>  <Entry>
357

>  <title>
19-5104

>  <rigid docking scores>
-15.2988

>  <InChIKey>
XUTPZGNSFPASMP-UHFFFAOYSA-N

$$$$
atoms 21 bonds 23
dotmatics
mol io
 21 23  0  0  0  0  0  0  0  0999 V2000
    3.7284   -2.5062    0.0000 N   0  0  0  0  0  0  0  0  0  0  0  0
    4.1412   -1.7896    0.0000 C   0  0  0  0  0  0  0  0  0  0  0  0
    4.9682   -1.7889    0.0000 O   0  0  0  0  0  0  0  0  0  0  0  0
    3.7271   -1.0738    0.0000 C   0  0  0  0  0  0  0  0  0  0  0  0
    2.8989   -1.0738    0.0000 C   0  0  0  0  0  0  0  0  0  0  0  0
    2.4847   -0.3579    0.0000 C   0  0  0  0  0  0  0  0  0  0  0  0
    1.6565   -0.3579    0.0000 N   0  0  0  0  0  0  0  0  0  0  0  0
    1.2424   -1.0738    0.0000 C   0  0  0  0  0  0  0  0  0  0  0  0
    0.4141   -1.0738    0.0000 C   0  0  0  0  0  0  0  0  0  0  0  0
    0.0000   -0.3579    0.0000 C   0  0  0  0  0  0  0  0  0  0  0  0
    0.4141    0.3579    0.0000 C   0  0  0  0  0  0  0  0  0  0  0  0
    1.2424    0.3579    0.0000 C   0  0  0  0  0  0  0  0  0  0  0  0
    2.8989    0.3579    0.0000 N   0  0  0  0  0  0  0  0  0  0  0  0
    3.7271    0.3579    0.0000 C   0  0  0  0  0  0  0  0  0  0  0  0
    4.1412    1.0738    0.0000 C   0  0  0  0  0  0  0  0  0  0  0  0
    3.7284    1.7903    0.0000 C   0  0  0  0  0  0  0  0  0  0  0  0
    4.1425    2.5062    0.0000 C   0  0  0  0  0  0  0  0  0  0  0  0
    4.9695    2.5054    0.0000 C   0  0  0  0  0  0  0  0  0  0  0  0
    5.3824    1.7889    0.0000 C   0  0  0  0  0  0  0  0  0  0  0  0
    4.9682    1.0730    0.0000 C   0  0  0  0  0  0  0  0  0  0  0  0
    4.1412   -0.3579    0.0000 N   0  0  0  0  0  0  0  0  0  0  0  0
  1  2  1  0  0  0
  2  3  2  0  0  0
  2  4  1  0  0  0
  4 21  1  0  0  0
  4  5  2  0  0  0
  5  6  1  0  0  0
  6  7  1  0  0  0
  7 12  1  0  0  0
  7  8  1  0  0  0
  8  9  1  0  0  0
  9 10  1  0  0  0
 10 11  1  0  0  0
 11 12  1  0  0  0
  6 13  2  0  0  0
 13 14  1  0  0  0
 14 15  1  0  0  0
 15 20  1  0  0  0
 15 16  2  0  0  0
 16 17  1  0  0  0
 17 18  2  0  0  0
 18 19  1  0  0  0
 19 20  2  0  0  0
 14 21  2  0  0  0
M  END
>  <Entry>
358

>  <title>
19-5493

>  <rigid docking scores>
-16.5154

>  <InChIKey>
YORXEKKMEBHJEI-UHFFFAOYSA-N

$$$$
atoms 20 bonds 22
dotmatics
mol io
 20 22  0  0  0  0  0  0  0  0999 V2000
    2.1856   -3.1050    0.0000 C   0  0  0  0  0  0  0  0  0  0  0  0
    2.1797   -2.2780    0.0000 C   0  0  0  0  0  0  0  0  0  0  0  0
    2.8929   -1.8594    0.0000 C   0  0  0  0  0  0  0  0  0  0  0  0
    2.8870   -1.0324    0.0000 N   0  0  0  0  0  0  0  0  0  0  0  0
    2.1679   -0.6241    0.0000 C   0  0  0  0  0  0  0  0  0  0  0  0
    2.1620    0.2029    0.0000 C   0  0  0  0  0  0  0  0  0  0  0  0
    2.8752    0.6215    0.0000 N   0  0  0  0  0  0  0  0  0  0  0  0
    2.8693    1.4485    0.0000 C   0  0  0  0  0  0  0  0  0  0  0  0
    3.5851    1.8626    0.0000 C   0  0  0  0  0  0  0  0  0  0  0  0
    3.5851    2.6909    0.0000 C   0  0  0  0  0  0  0  0  0  0  0  0
    2.8693    3.1050    0.0000 N   0  0  0  0  0  0  0  0  0  0  0  0
    2.1475    2.6909    0.0000 C   0  0  0  0  0  0  0  0  0  0  0  0
    1.4317    3.1050    0.0000 C   0  0  0  0  0  0  0  0  0  0  0  0
    0.7158    2.6909    0.0000 C   0  0  0  0  0  0  0  0  0  0  0  0
    0.0000    3.1050    0.0000 F   0  0  0  0  0  0  0  0  0  0  0  0
    0.7158    1.8626    0.0000 C   0  0  0  0  0  0  0  0  0  0  0  0
    1.4317    1.4485    0.0000 C   0  0  0  0  0  0  0  0  0  0  0  0
    2.1475    1.8626    0.0000 C   0  0  0  0  0  0  0  0  0  0  0  0
    3.5943    0.2132    0.0000 C   0  0  0  0  0  0  0  0  0  0  0  0
    3.6002   -0.6138    0.0000 C   0  0  0  0  0  0  0  0  0  0  0  0
  1  2  1  0  0  0
  2  3  1  0  0  0
  3  4  1  0  0  0
  4 20  1  0  0  0
  4  5  1  0  0  0
  5  6  1  0  0  0
  6  7  1  0  0  0
  7  8  1  0  0  0
  8 18  1  0  0  0
  8  9  2  0  0  0
  9 10  1  0  0  0
 10 11  2  0  0  0
 11 12  1  0  0  0
 12 18  1  0  0  0
 12 13  2  0  0  0
 13 14  1  0  0  0
 14 15  1  0  0  0
 14 16  2  0  0  0
 16 17  1  0  0  0
 17 18  2  0  0  0
  7 19  1  0  0  0
 19 20  1  0  0  0
M  END
>  <Entry>
359

>  <title>
19-5538

>  <rigid docking scores>
-15.7432

>  <InChIKey>
QYXXVEWIPLEHFB-UHFFFAOYSA-N

>  <Mcule>
MCULE-1991982345

$$$$
atoms 20 bonds 22
dotmatics
mol io
 20 22  0  0  0  0  0  0  0  0999 V2000
    6.2106    1.4317    0.0000 C   0  0  0  0  0  0  0  0  0  0  0  0
    5.3836    1.4317    0.0000 N   0  0  0  0  0  0  0  0  0  0  0  0
    4.9695    0.7158    0.0000 C   0  0  0  0  0  0  0  0  0  0  0  0
    4.1412    0.7158    0.0000 C   0  0  0  0  0  0  0  0  0  0  0  0
    3.7271    1.4317    0.0000 N   0  0  0  0  0  0  0  0  0  0  0  0
    2.8989    1.4317    0.0000 C   0  0  0  0  0  0  0  0  0  0  0  0
    2.4847    0.7158    0.0000 C   0  0  0  0  0  0  0  0  0  0  0  0
    1.6565    0.7158    0.0000 C   0  0  0  0  0  0  0  0  0  0  0  0
    1.2424    0.0000    0.0000 C   0  0  0  0  0  0  0  0  0  0  0  0
    1.6552   -0.7166    0.0000 C   0  0  0  0  0  0  0  0  0  0  0  0
    1.2411   -1.4324    0.0000 C   0  0  0  0  0  0  0  0  0  0  0  0
    0.4141   -1.4317    0.0000 C   0  0  0  0  0  0  0  0  0  0  0  0
    0.0000   -2.1475    0.0000 O   0  0  0  0  0  0  0  0  0  0  0  0
    0.0012   -0.7151    0.0000 C   0  0  0  0  0  0  0  0  0  0  0  0
    0.4154    0.0007    0.0000 C   0  0  0  0  0  0  0  0  0  0  0  0
    1.2424    1.4317    0.0000 N   0  0  0  0  0  0  0  0  0  0  0  0
    1.6565    2.1475    0.0000 C   0  0  0  0  0  0  0  0  0  0  0  0
    2.4847    2.1475    0.0000 N   0  0  0  0  0  0  0  0  0  0  0  0
    4.1412    2.1475    0.0000 C   0  0  0  0  0  0  0  0  0  0  0  0
    4.9695    2.1475    0.0000 C   0  0  0  0  0  0  0  0  0  0  0  0
  1  2  1  0  0  0
  2 20  1  0  0  0
  2  3  1  0  0  0
  3  4  1  0  0  0
  4  5  1  0  0  0
  5  6  1  0  0  0
  6 18  1  0  0  0
  6  7  2  0  0  0
  7  8  1  0  0  0
  8  9  1  0  0  0
  9 15  1  0  0  0
  9 10  2  0  0  0
 10 11  1  0  0  0
 11 12  2  0  0  0
 12 13  1  0  0  0
 12 14  1  0  0  0
 14 15  2  0  0  0
  8 16  2  0  0  0
 16 17  1  0  0  0
 17 18  2  0  0  0
  5 19  1  0  0  0
 19 20  1  0  0  0
M  END
>  <Entry>
360

>  <title>
19-6374

>  <rigid docking scores>
-16.469

>  <InChIKey>
YEHQTQYTCYBBOG-UHFFFAOYSA-N

$$$$
atoms 20 bonds 22
dotmatics
mol io
 20 22  0  0  0  0  0  0  0  0999 V2000
   -3.0777    4.5392    0.0000 C   0  0  0  0  0  0  0  0  0  0  0  0
   -2.6642    3.8230    0.0000 C   0  0  0  0  0  0  0  0  0  0  0  0
   -3.0777    3.1068    0.0000 O   0  0  0  0  0  0  0  0  0  0  0  0
   -1.8372    3.8230    0.0000 N   0  0  0  0  0  0  0  0  0  0  0  0
   -1.4237    4.5392    0.0000 C   0  0  0  0  0  0  0  0  0  0  0  0
   -0.5967    4.5392    0.0000 C   0  0  0  0  0  0  0  0  0  0  0  0
   -0.1832    3.8230    0.0000 C   0  0  0  0  0  0  0  0  0  0  0  0
   -0.5967    3.1068    0.0000 C   0  0  0  0  0  0  0  0  0  0  0  0
   -0.1832    2.3906    0.0000 C   0  0  0  0  0  0  0  0  0  0  0  0
    0.6393    2.3041    0.0000 N   0  0  0  0  0  0  0  0  0  0  0  0
    0.8112    1.4952    0.0000 C   0  0  0  0  0  0  0  0  0  0  0  0
    1.5667    1.1588    0.0000 C   0  0  0  0  0  0  0  0  0  0  0  0
    2.2358    1.6449    0.0000 C   0  0  0  0  0  0  0  0  0  0  0  0
    2.9913    1.3086    0.0000 C   0  0  0  0  0  0  0  0  0  0  0  0
    3.0777    0.4861    0.0000 N   0  0  0  0  0  0  0  0  0  0  0  0
    2.4087   -0.0000    0.0000 C   0  0  0  0  0  0  0  0  0  0  0  0
    1.6532    0.3364    0.0000 C   0  0  0  0  0  0  0  0  0  0  0  0
    0.0950    1.0817    0.0000 C   0  0  0  0  0  0  0  0  0  0  0  0
   -0.5196    1.6351    0.0000 S   0  0  0  0  0  0  0  0  0  0  0  0
   -1.4237    3.1068    0.0000 C   0  0  0  0  0  0  0  0  0  0  0  0
  1  2  1  0  0  0
  2  3  2  0  0  0
  2  4  1  0  0  0
  4 20  1  0  0  0
  4  5  1  0  0  0
  5  6  1  0  0  0
  6  7  1  0  0  0
  7  8  1  0  0  0
  8  9  1  0  0  0
  9 19  1  0  0  0
  9 10  2  0  0  0
 10 11  1  0  0  0
 11 12  1  0  0  0
 12 17  1  0  0  0
 12 13  2  0  0  0
 13 14  1  0  0  0
 14 15  2  0  0  0
 15 16  1  0  0  0
 16 17  2  0  0  0
 11 18  2  0  0  0
 18 19  1  0  0  0
  8 20  1  0  0  0
M  END
>  <Entry>
361

>  <title>
19-6430

>  <rigid docking scores>
-17.562

>  <InChIKey>
ABEYYDXPGIJRMX-UHFFFAOYSA-N

$$$$
atoms 23 bonds 24
dotmatics
mol io
 23 24  0  0  0  0  0  0  0  0999 V2000
    7.1620    1.8607    0.0000 C   0  0  0  0  0  0  0  0  0  0  0  0
    7.1620    1.0338    0.0000 C   0  0  0  0  0  0  0  0  0  0  0  0
    7.8782    0.6202    0.0000 O   0  0  0  0  0  0  0  0  0  0  0  0
    6.4458    0.6202    0.0000 N   0  0  0  0  0  0  0  0  0  0  0  0
    6.4458   -0.2068    0.0000 C   0  0  0  0  0  0  0  0  0  0  0  0
    7.1620   -0.6202    0.0000 C   0  0  0  0  0  0  0  0  0  0  0  0
    7.1620   -1.4473    0.0000 C   0  0  0  0  0  0  0  0  0  0  0  0
    6.4458   -1.8607    0.0000 C   0  0  0  0  0  0  0  0  0  0  0  0
    5.7296   -1.4473    0.0000 C   0  0  0  0  0  0  0  0  0  0  0  0
    5.7296   -0.6202    0.0000 C   0  0  0  0  0  0  0  0  0  0  0  0
    5.0134   -0.2068    0.0000 N   0  0  0  0  0  0  0  0  0  0  0  0
    4.2972   -0.6202    0.0000 C   0  0  0  0  0  0  0  0  0  0  0  0
    4.2972   -1.4473    0.0000 O   0  0  0  0  0  0  0  0  0  0  0  0
    3.5810   -0.2068    0.0000 C   0  0  0  0  0  0  0  0  0  0  0  0
    3.5810    0.6202    0.0000 C   0  0  0  0  0  0  0  0  0  0  0  0
    2.8648    1.0337    0.0000 C   0  0  0  0  0  0  0  0  0  0  0  0
    2.1486    0.6202    0.0000 C   0  0  0  0  0  0  0  0  0  0  0  0
    2.1486   -0.2067    0.0000 C   0  0  0  0  0  0  0  0  0  0  0  0
    1.4324   -0.6202    0.0000 C   0  0  0  0  0  0  0  0  0  0  0  0
    0.7162   -0.2068    0.0000 N   0  0  0  0  0  0  0  0  0  0  0  0
    0.0000   -0.6202    0.0000 C   0  0  0  0  0  0  0  0  0  0  0  0
    0.7162    0.6203    0.0000 C   0  0  0  0  0  0  0  0  0  0  0  0
    2.8648   -0.6203    0.0000 C   0  0  0  0  0  0  0  0  0  0  0  0
  1  2  1  0  0  0
  2  3  2  0  0  0
  2  4  1  0  0  0
  4  5  1  0  0  0
  5 10  1  0  0  0
  5  6  2  0  0  0
  6  7  1  0  0  0
  7  8  2  0  0  0
  8  9  1  0  0  0
  9 10  2  0  0  0
 10 11  1  0  0  0
 11 12  1  0  0  0
 12 13  2  0  0  0
 12 14  1  0  0  0
 14 23  1  0  0  0
 14 15  2  0  0  0
 15 16  1  0  0  0
 16 17  2  0  0  0
 17 18  1  0  0  0
 18 19  1  0  0  0
 19 20  1  0  0  0
 20 21  1  0  0  0
 20 22  1  0  0  0
 18 23  2  0  0  0
M  END
>  <Entry>
362

>  <title>
19-6615

>  <rigid docking scores>
-15.4088

>  <InChIKey>
LHSVARMMQZXRJK-UHFFFAOYSA-N

$$$$
atoms 21 bonds 24
dotmatics
mol io
 21 24  0  0  0  0  0  0  0  0999 V2000
    0.0000    0.2288    0.0000 C   0  0  0  0  0  0  0  0  0  0  0  0
    0.0000    1.0570    0.0000 C   0  0  0  0  0  0  0  0  0  0  0  0
    0.7158    1.4711    0.0000 C   0  0  0  0  0  0  0  0  0  0  0  0
    1.4317    1.0570    0.0000 C   0  0  0  0  0  0  0  0  0  0  0  0
    2.1534    1.4711    0.0000 N   0  0  0  0  0  0  0  0  0  0  0  0
    2.8693    1.0570    0.0000 C   0  0  0  0  0  0  0  0  0  0  0  0
    3.5851    1.4711    0.0000 C   0  0  0  0  0  0  0  0  0  0  0  0
    4.3017    1.0583    0.0000 N   0  0  0  0  0  0  0  0  0  0  0  0
    4.9846    1.5247    0.0000 C   0  0  0  0  0  0  0  0  0  0  0  0
    5.7751    1.2816    0.0000 C   0  0  0  0  0  0  0  0  0  0  0  0
    6.0779    0.5121    0.0000 C   0  0  0  0  0  0  0  0  0  0  0  0
    5.6650   -0.2045    0.0000 N   0  0  0  0  0  0  0  0  0  0  0  0
    6.0356   -0.9438    0.0000 C   0  0  0  0  0  0  0  0  0  0  0  0
    5.4469   -1.5247    0.0000 C   0  0  0  0  0  0  0  0  0  0  0  0
    4.7126   -1.1444    0.0000 C   0  0  0  0  0  0  0  0  0  0  0  0
    4.8473   -0.3285    0.0000 C   0  0  0  0  0  0  0  0  0  0  0  0
    4.2406    0.2335    0.0000 C   0  0  0  0  0  0  0  0  0  0  0  0
    2.8693    0.2288    0.0000 C   0  0  0  0  0  0  0  0  0  0  0  0
    2.1534   -0.1854    0.0000 N   0  0  0  0  0  0  0  0  0  0  0  0
    1.4317    0.2288    0.0000 C   0  0  0  0  0  0  0  0  0  0  0  0
    0.7158   -0.1854    0.0000 C   0  0  0  0  0  0  0  0  0  0  0  0
  1 21  1  0  0  0
  1  2  2  0  0  0
  2  3  1  0  0  0
  3  4  2  0  0  0
  4 20  1  0  0  0
  4  5  1  0  0  0
  5  6  2  0  0  0
  6  7  1  0  0  0
  7  8  1  0  0  0
  8 17  1  0  0  0
  8  9  1  0  0  0
  9 10  1  0  0  0
 10 11  1  0  0  0
 11 12  1  0  0  0
 12 16  1  0  0  0
 12 13  1  0  0  0
 13 14  1  0  0  0
 14 15  1  0  0  0
 15 16  1  0  0  0
 16 17  1  0  0  0
  6 18  1  0  0  0
 18 19  2  0  0  0
 19 20  1  0  0  0
 20 21  2  0  0  0
M  END
>  <Entry>
363

>  <title>
19-6815

>  <rigid docking scores>
-17.406

>  <InChIKey>
VPDCSGNLTMMBOH-UHFFFAOYSA-N

$$$$
atoms 21 bonds 22
dotmatics
mol io
 21 22  0  0  0  0  0  0  0  0999 V2000
    5.7296    2.4810    0.0000 C   0  0  0  0  0  0  0  0  0  0  0  0
    5.7296    1.6540    0.0000 C   0  0  0  0  0  0  0  0  0  0  0  0
    6.4458    1.2405    0.0000 O   0  0  0  0  0  0  0  0  0  0  0  0
    5.0134    1.2405    0.0000 N   0  0  0  0  0  0  0  0  0  0  0  0
    5.0134    0.4135    0.0000 C   0  0  0  0  0  0  0  0  0  0  0  0
    5.7296    0.0000    0.0000 C   0  0  0  0  0  0  0  0  0  0  0  0
    5.7296   -0.8270    0.0000 C   0  0  0  0  0  0  0  0  0  0  0  0
    5.0134   -1.2405    0.0000 C   0  0  0  0  0  0  0  0  0  0  0  0
    5.0134   -2.0675    0.0000 C   0  0  0  0  0  0  0  0  0  0  0  0
    4.2972   -0.8270    0.0000 C   0  0  0  0  0  0  0  0  0  0  0  0
    3.5810   -1.2405    0.0000 N   0  0  0  0  0  0  0  0  0  0  0  0
    2.8648   -0.8270    0.0000 C   0  0  0  0  0  0  0  0  0  0  0  0
    2.8648    0.0000    0.0000 O   0  0  0  0  0  0  0  0  0  0  0  0
    2.1486   -1.2405    0.0000 C   0  0  0  0  0  0  0  0  0  0  0  0
    2.1486   -2.0675    0.0000 C   0  0  0  0  0  0  0  0  0  0  0  0
    1.4324   -2.4810    0.0000 C   0  0  0  0  0  0  0  0  0  0  0  0
    0.7162   -2.0675    0.0000 C   0  0  0  0  0  0  0  0  0  0  0  0
    0.0000   -2.4810    0.0000 O   0  0  0  0  0  0  0  0  0  0  0  0
    0.7162   -1.2405    0.0000 C   0  0  0  0  0  0  0  0  0  0  0  0
    1.4324   -0.8270    0.0000 C   0  0  0  0  0  0  0  0  0  0  0  0
    4.2972    0.0000    0.0000 C   0  0  0  0  0  0  0  0  0  0  0  0
  1  2  1  0  0  0
  2  3  2  0  0  0
  2  4  1  0  0  0
  4  5  1  0  0  0
  5 21  1  0  0  0
  5  6  2  0  0  0
  6  7  1  0  0  0
  7  8  2  0  0  0
  8  9  1  0  0  0
  8 10  1  0  0  0
 10 11  1  0  0  0
 11 12  1  0  0  0
 12 13  2  0  0  0
 12 14  1  0  0  0
 14 20  1  0  0  0
 14 15  2  0  0  0
 15 16  1  0  0  0
 16 17  2  0  0  0
 17 18  1  0  0  0
 17 19  1  0  0  0
 19 20  2  0  0  0
 10 21  2  0  0  0
M  END
>  <Entry>
364

>  <title>
19-7162

>  <rigid docking scores>
-16.9979

>  <InChIKey>
MWEKYLCJJJATFV-UHFFFAOYSA-N

$$$$
atoms 21 bonds 23
dotmatics
mol io
 21 23  0  0  0  0  0  0  0  0999 V2000
    3.5851   -3.0999    0.0000 O   0  0  0  0  0  0  0  0  0  0  0  0
    2.8693   -2.6858    0.0000 C   0  0  0  0  0  0  0  0  0  0  0  0
    2.8693   -1.8575    0.0000 C   0  0  0  0  0  0  0  0  0  0  0  0
    2.1534   -1.4434    0.0000 N   0  0  0  0  0  0  0  0  0  0  0  0
    2.1594   -0.6164    0.0000 C   0  0  0  0  0  0  0  0  0  0  0  0
    1.4461   -0.1978    0.0000 O   0  0  0  0  0  0  0  0  0  0  0  0
    2.8785   -0.2080    0.0000 C   0  0  0  0  0  0  0  0  0  0  0  0
    2.8844    0.6189    0.0000 C   0  0  0  0  0  0  0  0  0  0  0  0
    2.1712    1.0376    0.0000 C   0  0  0  0  0  0  0  0  0  0  0  0
    2.1771    1.8645    0.0000 C   0  0  0  0  0  0  0  0  0  0  0  0
    2.8962    2.2729    0.0000 C   0  0  0  0  0  0  0  0  0  0  0  0
    2.9021    3.0999    0.0000 Cl  0  0  0  0  0  0  0  0  0  0  0  0
    3.6094    1.8543    0.0000 C   0  0  0  0  0  0  0  0  0  0  0  0
    3.6035    1.0273    0.0000 C   0  0  0  0  0  0  0  0  0  0  0  0
    1.4317   -1.8575    0.0000 C   0  0  0  0  0  0  0  0  0  0  0  0
    0.7158   -1.4434    0.0000 C   0  0  0  0  0  0  0  0  0  0  0  0
    0.0000   -1.8575    0.0000 C   0  0  0  0  0  0  0  0  0  0  0  0
    0.0000   -2.6858    0.0000 C   0  0  0  0  0  0  0  0  0  0  0  0
    0.7158   -3.0999    0.0000 C   0  0  0  0  0  0  0  0  0  0  0  0
    1.4317   -2.6858    0.0000 C   0  0  0  0  0  0  0  0  0  0  0  0
    2.1534   -3.0999    0.0000 N   0  0  0  0  0  0  0  0  0  0  0  0
  1  2  2  0  0  0
  2 21  1  0  0  0
  2  3  1  0  0  0
  3  4  1  0  0  0
  4  5  1  0  0  0
  5  6  2  0  0  0
  5  7  1  0  0  0
  7  8  1  0  0  0
  8 14  1  0  0  0
  8  9  2  0  0  0
  9 10  1  0  0  0
 10 11  2  0  0  0
 11 12  1  0  0  0
 11 13  1  0  0  0
 13 14  2  0  0  0
  4 15  1  0  0  0
 15 20  1  0  0  0
 15 16  2  0  0  0
 16 17  1  0  0  0
 17 18  2  0  0  0
 18 19  1  0  0  0
 19 20  2  0  0  0
 20 21  1  0  0  0
M  END
>  <Entry>
365

>  <title>
19-7461

>  <rigid docking scores>
-19.5691

>  <InChIKey>
HDJFGVDFGZKXSD-UHFFFAOYSA-N

>  <ChEMBL>
CHEMBL3589500

>  <ZINC>
ZINC000010313898

>  <eMolecules>
13334573

>  <Pubchem>
41448536

>  <Mcule>
MCULE-8077567996

>  <MolPort>
MolPort-008-385-456

$$$$
atoms 18 bonds 20
dotmatics
mol io
 18 20  0  0  0  0  0  0  0  0999 V2000
    3.5851   -1.9399    0.0000 O   0  0  0  0  0  0  0  0  0  0  0  0
    2.8693   -1.5258    0.0000 C   0  0  0  0  0  0  0  0  0  0  0  0
    2.8693   -0.6975    0.0000 C   0  0  0  0  0  0  0  0  0  0  0  0
    2.1534   -0.2834    0.0000 N   0  0  0  0  0  0  0  0  0  0  0  0
    2.1594    0.5436    0.0000 C   0  0  0  0  0  0  0  0  0  0  0  0
    1.4461    0.9622    0.0000 O   0  0  0  0  0  0  0  0  0  0  0  0
    2.8785    0.9519    0.0000 C   0  0  0  0  0  0  0  0  0  0  0  0
    2.9708    1.7738    0.0000 C   0  0  0  0  0  0  0  0  0  0  0  0
    3.7809    1.9399    0.0000 C   0  0  0  0  0  0  0  0  0  0  0  0
    4.1893    1.2208    0.0000 C   0  0  0  0  0  0  0  0  0  0  0  0
    3.6316    0.6102    0.0000 S   0  0  0  0  0  0  0  0  0  0  0  0
    1.4317   -0.6975    0.0000 C   0  0  0  0  0  0  0  0  0  0  0  0
    0.7158   -0.2834    0.0000 C   0  0  0  0  0  0  0  0  0  0  0  0
    0.0000   -0.6975    0.0000 C   0  0  0  0  0  0  0  0  0  0  0  0
    0.0000   -1.5258    0.0000 C   0  0  0  0  0  0  0  0  0  0  0  0
    0.7158   -1.9399    0.0000 C   0  0  0  0  0  0  0  0  0  0  0  0
    1.4317   -1.5258    0.0000 C   0  0  0  0  0  0  0  0  0  0  0  0
    2.1534   -1.9399    0.0000 N   0  0  0  0  0  0  0  0  0  0  0  0
  1  2  2  0  0  0
  2 18  1  0  0  0
  2  3  1  0  0  0
  3  4  1  0  0  0
  4  5  1  0  0  0
  5  6  2  0  0  0
  5  7  1  0  0  0
  7 11  1  0  0  0
  7  8  2  0  0  0
  8  9  1  0  0  0
  9 10  2  0  0  0
 10 11  1  0  0  0
  4 12  1  0  0  0
 12 17  1  0  0  0
 12 13  2  0  0  0
 13 14  1  0  0  0
 14 15  2  0  0  0
 15 16  1  0  0  0
 16 17  2  0  0  0
 17 18  1  0  0  0
M  END
>  <Entry>
366

>  <title>
19-7462

>  <rigid docking scores>
-19.7682

>  <InChIKey>
YOXQGYRAZXKTTC-UHFFFAOYSA-N

>  <ChEMBL>
CHEMBL1307525

>  <ZINC>
ZINC000002700687

>  <eMolecules>
1523723

>  <Pubchem>
2142327

>  <Mcule>
MCULE-7300602150

>  <MolPort>
MolPort-000-496-635

$$$$
atoms 24 bonds 27
dotmatics
mol io
 24 27  0  0  0  0  0  0  0  0999 V2000
    2.1594    1.7458    0.0000 O   0  0  0  0  0  0  0  0  0  0  0  0
    2.1534    0.9188    0.0000 C   0  0  0  0  0  0  0  0  0  0  0  0
    1.4317    0.5047    0.0000 C   0  0  0  0  0  0  0  0  0  0  0  0
    0.7158    0.9188    0.0000 C   0  0  0  0  0  0  0  0  0  0  0  0
    0.0000    0.5047    0.0000 C   0  0  0  0  0  0  0  0  0  0  0  0
    0.0000   -0.3236    0.0000 C   0  0  0  0  0  0  0  0  0  0  0  0
    0.7158   -0.7377    0.0000 C   0  0  0  0  0  0  0  0  0  0  0  0
    1.4317   -0.3236    0.0000 C   0  0  0  0  0  0  0  0  0  0  0  0
    2.1534   -0.7377    0.0000 C   0  0  0  0  0  0  0  0  0  0  0  0
    2.8693   -0.3236    0.0000 C   0  0  0  0  0  0  0  0  0  0  0  0
    2.8693    0.5047    0.0000 N   0  0  0  0  0  0  0  0  0  0  0  0
    3.5851    0.9188    0.0000 C   0  0  0  0  0  0  0  0  0  0  0  0
    4.3017    0.5059    0.0000 C   0  0  0  0  0  0  0  0  0  0  0  0
    5.0175    0.9201    0.0000 N   0  0  0  0  0  0  0  0  0  0  0  0
    5.0168    1.7471    0.0000 C   0  0  0  0  0  0  0  0  0  0  0  0
    5.7327    2.1612    0.0000 C   0  0  0  0  0  0  0  0  0  0  0  0
    6.4492    1.7483    0.0000 O   0  0  0  0  0  0  0  0  0  0  0  0
    6.4499    0.9213    0.0000 C   0  0  0  0  0  0  0  0  0  0  0  0
    5.7341    0.5072    0.0000 C   0  0  0  0  0  0  0  0  0  0  0  0
    3.6395   -0.6244    0.0000 C   0  0  0  0  0  0  0  0  0  0  0  0
    3.8844   -1.4143    0.0000 C   0  0  0  0  0  0  0  0  0  0  0  0
    3.4195   -2.0982    0.0000 C   0  0  0  0  0  0  0  0  0  0  0  0
    2.5949   -2.1612    0.0000 C   0  0  0  0  0  0  0  0  0  0  0  0
    2.0315   -1.5557    0.0000 C   0  0  0  0  0  0  0  0  0  0  0  0
  1  2  2  0  0  0
  2 11  1  0  0  0
  2  3  1  0  0  0
  3  8  1  0  0  0
  3  4  2  0  0  0
  4  5  1  0  0  0
  5  6  2  0  0  0
  6  7  1  0  0  0
  7  8  2  0  0  0
  8  9  1  0  0  0
  9 24  1  0  0  0
  9 10  2  0  0  0
 10 11  1  0  0  0
 11 12  1  0  0  0
 12 13  1  0  0  0
 13 14  1  0  0  0
 14 19  1  0  0  0
 14 15  1  0  0  0
 15 16  1  0  0  0
 16 17  1  0  0  0
 17 18  1  0  0  0
 18 19  1  0  0  0
 10 20  1  0  0  0
 20 21  1  0  0  0
 21 22  1  0  0  0
 22 23  1  0  0  0
 23 24  1  0  0  0
M  END
>  <Entry>
367

>  <title>
19-7472

>  <rigid docking scores>
-15.5877

>  <InChIKey>
ZWJPWHUIVINYTB-UHFFFAOYSA-N

$$$$
atoms 20 bonds 22
dotmatics
mol io
 20 22  0  0  0  0  0  0  0  0999 V2000
    6.6411    1.7377    0.0000 C   0  0  0  0  0  0  0  0  0  0  0  0
    6.6411    0.9107    0.0000 C   0  0  0  0  0  0  0  0  0  0  0  0
    7.3573    0.4972    0.0000 C   0  0  0  0  0  0  0  0  0  0  0  0
    7.3573   -0.3298    0.0000 C   0  0  0  0  0  0  0  0  0  0  0  0
    6.6411   -0.7433    0.0000 N   0  0  0  0  0  0  0  0  0  0  0  0
    5.9249   -0.3298    0.0000 C   0  0  0  0  0  0  0  0  0  0  0  0
    5.2087   -0.7433    0.0000 N   0  0  0  0  0  0  0  0  0  0  0  0
    4.4925   -0.3298    0.0000 C   0  0  0  0  0  0  0  0  0  0  0  0
    3.7763   -0.7433    0.0000 C   0  0  0  0  0  0  0  0  0  0  0  0
    3.6898   -1.5658    0.0000 C   0  0  0  0  0  0  0  0  0  0  0  0
    2.8809   -1.7377    0.0000 S   0  0  0  0  0  0  0  0  0  0  0  0
    2.4674   -1.0215    0.0000 C   0  0  0  0  0  0  0  0  0  0  0  0
    1.6449   -0.9351    0.0000 C   0  0  0  0  0  0  0  0  0  0  0  0
    1.1588   -1.6041    0.0000 C   0  0  0  0  0  0  0  0  0  0  0  0
    0.3364   -1.5177    0.0000 C   0  0  0  0  0  0  0  0  0  0  0  0
    0.0000   -0.7622    0.0000 C   0  0  0  0  0  0  0  0  0  0  0  0
    0.4861   -0.0931    0.0000 C   0  0  0  0  0  0  0  0  0  0  0  0
    1.3086   -0.1796    0.0000 C   0  0  0  0  0  0  0  0  0  0  0  0
    3.0208   -0.4069    0.0000 N   0  0  0  0  0  0  0  0  0  0  0  0
    5.9249    0.4972    0.0000 N   0  0  0  0  0  0  0  0  0  0  0  0
  1  2  1  0  0  0
  2 20  1  0  0  0
  2  3  2  0  0  0
  3  4  1  0  0  0
  4  5  2  0  0  0
  5  6  1  0  0  0
  6  7  1  0  0  0
  7  8  1  0  0  0
  8  9  1  0  0  0
  9 19  1  0  0  0
  9 10  2  0  0  0
 10 11  1  0  0  0
 11 12  1  0  0  0
 12 13  1  0  0  0
 13 18  1  0  0  0
 13 14  2  0  0  0
 14 15  1  0  0  0
 15 16  2  0  0  0
 16 17  1  0  0  0
 17 18  2  0  0  0
 12 19  2  0  0  0
  6 20  2  0  0  0
M  END
>  <Entry>
368

>  <title>
19-7612

>  <rigid docking scores>
-17.4433

>  <InChIKey>
VMWKMUGMELYAFD-UHFFFAOYSA-N

$$$$
atoms 19 bonds 20
dotmatics
mol io
 19 20  0  0  0  0  0  0  0  0999 V2000
    5.7124    1.8607    0.0000 C   0  0  0  0  0  0  0  0  0  0  0  0
    5.7124    1.0338    0.0000 C   0  0  0  0  0  0  0  0  0  0  0  0
    6.4286    0.6202    0.0000 O   0  0  0  0  0  0  0  0  0  0  0  0
    4.9962    0.6202    0.0000 N   0  0  0  0  0  0  0  0  0  0  0  0
    4.9962   -0.2068    0.0000 C   0  0  0  0  0  0  0  0  0  0  0  0
    5.7124   -0.6202    0.0000 C   0  0  0  0  0  0  0  0  0  0  0  0
    5.7124   -1.4473    0.0000 C   0  0  0  0  0  0  0  0  0  0  0  0
    4.9962   -1.8607    0.0000 C   0  0  0  0  0  0  0  0  0  0  0  0
    4.2800   -1.4473    0.0000 C   0  0  0  0  0  0  0  0  0  0  0  0
    4.2800   -0.6202    0.0000 C   0  0  0  0  0  0  0  0  0  0  0  0
    3.5637   -0.2068    0.0000 N   0  0  0  0  0  0  0  0  0  0  0  0
    2.8475   -0.6202    0.0000 C   0  0  0  0  0  0  0  0  0  0  0  0
    2.8475   -1.4473    0.0000 O   0  0  0  0  0  0  0  0  0  0  0  0
    2.1313   -0.2068    0.0000 C   0  0  0  0  0  0  0  0  0  0  0  0
    2.0449    0.6157    0.0000 C   0  0  0  0  0  0  0  0  0  0  0  0
    1.2360    0.7877    0.0000 C   0  0  0  0  0  0  0  0  0  0  0  0
    0.8225    0.0715    0.0000 C   0  0  0  0  0  0  0  0  0  0  0  0
    0.0000   -0.0150    0.0000 C   0  0  0  0  0  0  0  0  0  0  0  0
    1.3758   -0.5431    0.0000 O   0  0  0  0  0  0  0  0  0  0  0  0
  1  2  1  0  0  0
  2  3  2  0  0  0
  2  4  1  0  0  0
  4  5  1  0  0  0
  5 10  1  0  0  0
  5  6  2  0  0  0
  6  7  1  0  0  0
  7  8  2  0  0  0
  8  9  1  0  0  0
  9 10  2  0  0  0
 10 11  1  0  0  0
 11 12  1  0  0  0
 12 13  2  0  0  0
 12 14  1  0  0  0
 14 19  1  0  0  0
 14 15  2  0  0  0
 15 16  1  0  0  0
 16 17  2  0  0  0
 17 18  1  0  0  0
 17 19  1  0  0  0
M  END
>  <Entry>
369

>  <title>
19-7709

>  <rigid docking scores>
-18.4197

>  <InChIKey>
JQHCGEXQVSTJMI-UHFFFAOYSA-N

$$$$
atoms 23 bonds 25
dotmatics
mol io
 23 25  0  0  0  0  0  0  0  0999 V2000
    6.2087   -2.1484    0.0000 N   0  0  0  0  0  0  0  0  0  0  0  0
    6.6222   -1.4322    0.0000 C   0  0  0  0  0  0  0  0  0  0  0  0
    7.4492   -1.4322    0.0000 O   0  0  0  0  0  0  0  0  0  0  0  0
    6.2087   -0.7160    0.0000 C   0  0  0  0  0  0  0  0  0  0  0  0
    5.3817   -0.7160    0.0000 C   0  0  0  0  0  0  0  0  0  0  0  0
    4.9682    0.0002    0.0000 C   0  0  0  0  0  0  0  0  0  0  0  0
    5.3817    0.7164    0.0000 C   0  0  0  0  0  0  0  0  0  0  0  0
    4.9682    1.4326    0.0000 C   0  0  0  0  0  0  0  0  0  0  0  0
    4.1412    1.4326    0.0000 N   0  0  0  0  0  0  0  0  0  0  0  0
    3.7271    0.7167    0.0000 C   0  0  0  0  0  0  0  0  0  0  0  0
    2.8989    0.7167    0.0000 C   0  0  0  0  0  0  0  0  0  0  0  0
    2.4847    1.4326    0.0000 N   0  0  0  0  0  0  0  0  0  0  0  0
    1.6565    1.4326    0.0000 C   0  0  0  0  0  0  0  0  0  0  0  0
    1.2424    0.7167    0.0000 C   0  0  0  0  0  0  0  0  0  0  0  0
    0.4141    0.7167    0.0000 C   0  0  0  0  0  0  0  0  0  0  0  0
    0.0000    1.4326    0.0000 C   0  0  0  0  0  0  0  0  0  0  0  0
    0.4141    2.1484    0.0000 C   0  0  0  0  0  0  0  0  0  0  0  0
    1.2424    2.1484    0.0000 C   0  0  0  0  0  0  0  0  0  0  0  0
    2.8989    2.1484    0.0000 C   0  0  0  0  0  0  0  0  0  0  0  0
    3.7271    2.1484    0.0000 C   0  0  0  0  0  0  0  0  0  0  0  0
    6.2087    0.7164    0.0000 C   0  0  0  0  0  0  0  0  0  0  0  0
    6.6222    0.0002    0.0000 C   0  0  0  0  0  0  0  0  0  0  0  0
    7.4492    0.0002    0.0000 O   0  0  0  0  0  0  0  0  0  0  0  0
  1  2  1  0  0  0
  2  3  2  0  0  0
  2  4  1  0  0  0
  4 22  1  0  0  0
  4  5  2  0  0  0
  5  6  1  0  0  0
  6  7  2  0  0  0
  7  8  1  0  0  0
  8  9  1  0  0  0
  9 20  1  0  0  0
  9 10  1  0  0  0
 10 11  1  0  0  0
 11 12  1  0  0  0
 12 13  1  0  0  0
 13 18  1  0  0  0
 13 14  2  0  0  0
 14 15  1  0  0  0
 15 16  2  0  0  0
 16 17  1  0  0  0
 17 18  2  0  0  0
 12 19  1  0  0  0
 19 20  1  0  0  0
  7 21  1  0  0  0
 21 22  2  0  0  0
 22 23  1  0  0  0
M  END
>  <Entry>
370

>  <title>
19-7748

>  <rigid docking scores>
-16.3273

>  <InChIKey>
UIAMXMVDJLEYLR-UHFFFAOYSA-N

$$$$
atoms 20 bonds 22
dotmatics
mol io
 20 22  0  0  0  0  0  0  0  0999 V2000
    3.5851   -2.0687    0.0000 O   0  0  0  0  0  0  0  0  0  0  0  0
    2.8693   -1.6546    0.0000 C   0  0  0  0  0  0  0  0  0  0  0  0
    2.8693   -0.8263    0.0000 C   0  0  0  0  0  0  0  0  0  0  0  0
    2.1534   -0.4122    0.0000 N   0  0  0  0  0  0  0  0  0  0  0  0
    2.1594    0.4148    0.0000 C   0  0  0  0  0  0  0  0  0  0  0  0
    1.4461    0.8334    0.0000 O   0  0  0  0  0  0  0  0  0  0  0  0
    2.8785    0.8231    0.0000 C   0  0  0  0  0  0  0  0  0  0  0  0
    3.5917    0.4045    0.0000 C   0  0  0  0  0  0  0  0  0  0  0  0
    4.3109    0.8129    0.0000 C   0  0  0  0  0  0  0  0  0  0  0  0
    4.3168    1.6399    0.0000 C   0  0  0  0  0  0  0  0  0  0  0  0
    3.6035    2.0585    0.0000 C   0  0  0  0  0  0  0  0  0  0  0  0
    2.8844    1.6501    0.0000 C   0  0  0  0  0  0  0  0  0  0  0  0
    2.1712    2.0687    0.0000 Cl  0  0  0  0  0  0  0  0  0  0  0  0
    1.4317   -0.8263    0.0000 C   0  0  0  0  0  0  0  0  0  0  0  0
    0.7158   -0.4122    0.0000 C   0  0  0  0  0  0  0  0  0  0  0  0
    0.0000   -0.8263    0.0000 C   0  0  0  0  0  0  0  0  0  0  0  0
    0.0000   -1.6546    0.0000 C   0  0  0  0  0  0  0  0  0  0  0  0
    0.7158   -2.0687    0.0000 C   0  0  0  0  0  0  0  0  0  0  0  0
    1.4317   -1.6546    0.0000 C   0  0  0  0  0  0  0  0  0  0  0  0
    2.1534   -2.0687    0.0000 N   0  0  0  0  0  0  0  0  0  0  0  0
  1  2  2  0  0  0
  2 20  1  0  0  0
  2  3  1  0  0  0
  3  4  1  0  0  0
  4  5  1  0  0  0
  5  6  2  0  0  0
  5  7  1  0  0  0
  7 12  1  0  0  0
  7  8  2  0  0  0
  8  9  1  0  0  0
  9 10  2  0  0  0
 10 11  1  0  0  0
 11 12  2  0  0  0
 12 13  1  0  0  0
  4 14  1  0  0  0
 14 19  1  0  0  0
 14 15  2  0  0  0
 15 16  1  0  0  0
 16 17  2  0  0  0
 17 18  1  0  0  0
 18 19  2  0  0  0
 19 20  1  0  0  0
M  END
>  <Entry>
371

>  <title>
19-7989

>  <rigid docking scores>
-15.5457

>  <InChIKey>
VGXWTIHBPFIIPB-UHFFFAOYSA-N

>  <ChEMBL>
CHEMBL1579970

>  <ZINC>
ZINC000004384651

>  <eMolecules>
1523729

>  <Pubchem>
3159803

>  <Mcule>
MCULE-3810617733

>  <MolPort>
MolPort-002-017-960

$$$$
atoms 18 bonds 20
dotmatics
mol io
 18 20  0  0  0  0  0  0  0  0999 V2000
    5.4781    1.7377    0.0000 C   0  0  0  0  0  0  0  0  0  0  0  0
    5.4781    0.9107    0.0000 C   0  0  0  0  0  0  0  0  0  0  0  0
    6.1943    0.4972    0.0000 C   0  0  0  0  0  0  0  0  0  0  0  0
    6.1943   -0.3298    0.0000 C   0  0  0  0  0  0  0  0  0  0  0  0
    5.4781   -0.7433    0.0000 C   0  0  0  0  0  0  0  0  0  0  0  0
    4.7619   -0.3298    0.0000 C   0  0  0  0  0  0  0  0  0  0  0  0
    4.0457   -0.7433    0.0000 C   0  0  0  0  0  0  0  0  0  0  0  0
    3.9592   -1.5658    0.0000 C   0  0  0  0  0  0  0  0  0  0  0  0
    3.1503   -1.7377    0.0000 S   0  0  0  0  0  0  0  0  0  0  0  0
    2.7368   -1.0215    0.0000 C   0  0  0  0  0  0  0  0  0  0  0  0
    1.9143   -0.9351    0.0000 N   0  0  0  0  0  0  0  0  0  0  0  0
    1.5780   -0.1796    0.0000 C   0  0  0  0  0  0  0  0  0  0  0  0
    2.0641    0.4895    0.0000 O   0  0  0  0  0  0  0  0  0  0  0  0
    0.7555   -0.0931    0.0000 C   0  0  0  0  0  0  0  0  0  0  0  0
    0.0000   -0.4295    0.0000 C   0  0  0  0  0  0  0  0  0  0  0  0
    0.0864    0.3930    0.0000 C   0  0  0  0  0  0  0  0  0  0  0  0
    3.2902   -0.4069    0.0000 N   0  0  0  0  0  0  0  0  0  0  0  0
    4.7619    0.4972    0.0000 C   0  0  0  0  0  0  0  0  0  0  0  0
  1  2  1  0  0  0
  2 18  1  0  0  0
  2  3  2  0  0  0
  3  4  1  0  0  0
  4  5  2  0  0  0
  5  6  1  0  0  0
  6  7  1  0  0  0
  7 17  1  0  0  0
  7  8  2  0  0  0
  8  9  1  0  0  0
  9 10  1  0  0  0
 10 11  1  0  0  0
 11 12  1  0  0  0
 12 13  2  0  0  0
 12 14  1  0  0  0
 14 16  1  0  0  0
 14 15  1  0  0  0
 15 16  1  0  0  0
 10 17  2  0  0  0
  6 18  2  0  0  0
M  END
>  <Entry>
372

>  <title>
19-8058

>  <rigid docking scores>
-18.9631

>  <InChIKey>
DJUBXTUDFFFBHV-UHFFFAOYSA-N

$$$$
atoms 22 bonds 25
dotmatics
mol io
 22 25  0  0  0  0  0  0  0  0999 V2000
    0.4867    3.0801    0.0000 C   0  0  0  0  0  0  0  0  0  0  0  0
    1.3091    2.9929    0.0000 C   0  0  0  0  0  0  0  0  0  0  0  0
    1.6448    2.2371    0.0000 C   0  0  0  0  0  0  0  0  0  0  0  0
    1.1581    1.5685    0.0000 C   0  0  0  0  0  0  0  0  0  0  0  0
    1.4938    0.8127    0.0000 C   0  0  0  0  0  0  0  0  0  0  0  0
    2.3026    0.6401    0.0000 N   0  0  0  0  0  0  0  0  0  0  0  0
    2.3883   -0.1825    0.0000 C   0  0  0  0  0  0  0  0  0  0  0  0
    3.1042   -0.5966    0.0000 C   0  0  0  0  0  0  0  0  0  0  0  0
    3.1034   -1.4236    0.0000 N   0  0  0  0  0  0  0  0  0  0  0  0
    3.8193   -1.8377    0.0000 C   0  0  0  0  0  0  0  0  0  0  0  0
    3.8193   -2.6660    0.0000 C   0  0  0  0  0  0  0  0  0  0  0  0
    4.5351   -3.0801    0.0000 C   0  0  0  0  0  0  0  0  0  0  0  0
    5.2510   -2.6660    0.0000 C   0  0  0  0  0  0  0  0  0  0  0  0
    6.0378   -2.9204    0.0000 N   0  0  0  0  0  0  0  0  0  0  0  0
    6.5288   -2.2518    0.0000 C   0  0  0  0  0  0  0  0  0  0  0  0
    6.0378   -1.5833    0.0000 N   0  0  0  0  0  0  0  0  0  0  0  0
    5.2510   -1.8377    0.0000 N   0  0  0  0  0  0  0  0  0  0  0  0
    4.5351   -1.4236    0.0000 C   0  0  0  0  0  0  0  0  0  0  0  0
    1.6325   -0.5182    0.0000 C   0  0  0  0  0  0  0  0  0  0  0  0
    1.0797    0.0969    0.0000 S   0  0  0  0  0  0  0  0  0  0  0  0
    0.3357    1.6557    0.0000 C   0  0  0  0  0  0  0  0  0  0  0  0
    0.0000    2.4115    0.0000 C   0  0  0  0  0  0  0  0  0  0  0  0
  1 22  1  0  0  0
  1  2  2  0  0  0
  2  3  1  0  0  0
  3  4  2  0  0  0
  4  5  1  0  0  0
  5 20  1  0  0  0
  5  6  2  0  0  0
  6  7  1  0  0  0
  7  8  1  0  0  0
  8  9  1  0  0  0
  9 10  1  0  0  0
 10 18  1  0  0  0
 10 11  1  0  0  0
 11 12  1  0  0  0
 12 13  1  0  0  0
 13 17  1  0  0  0
 13 14  2  0  0  0
 14 15  1  0  0  0
 15 16  2  0  0  0
 16 17  1  0  0  0
 17 18  1  0  0  0
  7 19  2  0  0  0
 19 20  1  0  0  0
  4 21  1  0  0  0
 21 22  2  0  0  0
M  END
>  <Entry>
373

>  <title>
19-8122

>  <rigid docking scores>
-16.8794

>  <InChIKey>
VRRAZFAFMKMRCO-UHFFFAOYSA-N

>  <ChEMBL>
CHEMBL3489555

>  <eMolecules>
36349320

>  <Pubchem>
53568178

>  <Mcule>
MCULE-2341033638

>  <MolPort>
MolPort-020-028-868

$$$$
atoms 20 bonds 22
dotmatics
mol io
 20 22  0  0  0  0  0  0  0  0999 V2000
    0.4426    2.1015    0.0000 C   0  0  0  0  0  0  0  0  0  0  0  0
    1.2696    2.1015    0.0000 C   0  0  0  0  0  0  0  0  0  0  0  0
    1.6831    2.8177    0.0000 C   0  0  0  0  0  0  0  0  0  0  0  0
    1.2696    3.5339    0.0000 O   0  0  0  0  0  0  0  0  0  0  0  0
    2.5101    2.8177    0.0000 N   0  0  0  0  0  0  0  0  0  0  0  0
    2.9236    2.1015    0.0000 C   0  0  0  0  0  0  0  0  0  0  0  0
    2.5101    1.3853    0.0000 C   0  0  0  0  0  0  0  0  0  0  0  0
    1.6831    1.3853    0.0000 N   0  0  0  0  0  0  0  0  0  0  0  0
    1.2696    0.6691    0.0000 C   0  0  0  0  0  0  0  0  0  0  0  0
    0.4426    0.6691    0.0000 C   0  0  0  0  0  0  0  0  0  0  0  0
   -0.0435    0.0000    0.0000 C   0  0  0  0  0  0  0  0  0  0  0  0
   -0.8300    0.2556    0.0000 O   0  0  0  0  0  0  0  0  0  0  0  0
   -0.8300    1.0826    0.0000 C   0  0  0  0  0  0  0  0  0  0  0  0
   -1.4991    1.5687    0.0000 C   0  0  0  0  0  0  0  0  0  0  0  0
   -2.2546    1.2323    0.0000 C   0  0  0  0  0  0  0  0  0  0  0  0
   -2.9236    1.7184    0.0000 C   0  0  0  0  0  0  0  0  0  0  0  0
   -2.8372    2.5409    0.0000 C   0  0  0  0  0  0  0  0  0  0  0  0
   -2.0817    2.8772    0.0000 C   0  0  0  0  0  0  0  0  0  0  0  0
   -1.4126    2.3911    0.0000 C   0  0  0  0  0  0  0  0  0  0  0  0
   -0.0435    1.3381    0.0000 N   0  0  0  0  0  0  0  0  0  0  0  0
  1  2  1  0  0  0
  2  8  1  0  0  0
  2  3  1  0  0  0
  3  4  2  0  0  0
  3  5  1  0  0  0
  5  6  1  0  0  0
  6  7  1  0  0  0
  7  8  1  0  0  0
  8  9  1  0  0  0
  9 10  1  0  0  0
 10 20  1  0  0  0
 10 11  2  0  0  0
 11 12  1  0  0  0
 12 13  1  0  0  0
 13 14  1  0  0  0
 14 19  1  0  0  0
 14 15  2  0  0  0
 15 16  1  0  0  0
 16 17  2  0  0  0
 17 18  1  0  0  0
 18 19  2  0  0  0
 13 20  2  0  0  0
M  END
>  <Entry>
374

>  <title>
19-8701

>  <rigid docking scores>
-15.542

>  <InChIKey>
BXGVKUOAIUJBDI-UHFFFAOYSA-N

$$$$
atoms 19 bonds 21
dotmatics
mol io
 19 21  0  0  0  0  0  0  0  0999 V2000
   -3.5439    2.9244    0.0000 C   0  0  0  0  0  0  0  0  0  0  0  0
   -3.1304    2.2082    0.0000 C   0  0  0  0  0  0  0  0  0  0  0  0
   -2.3034    2.2082    0.0000 N   0  0  0  0  0  0  0  0  0  0  0  0
   -1.8899    2.9244    0.0000 C   0  0  0  0  0  0  0  0  0  0  0  0
   -1.0629    2.9244    0.0000 C   0  0  0  0  0  0  0  0  0  0  0  0
   -0.6494    2.2082    0.0000 N   0  0  0  0  0  0  0  0  0  0  0  0
    0.1776    2.2082    0.0000 C   0  0  0  0  0  0  0  0  0  0  0  0
    0.6637    2.8772    0.0000 N   0  0  0  0  0  0  0  0  0  0  0  0
    1.4503    2.6217    0.0000 N   0  0  0  0  0  0  0  0  0  0  0  0
    1.4503    1.7947    0.0000 C   0  0  0  0  0  0  0  0  0  0  0  0
    2.1193    1.3086    0.0000 C   0  0  0  0  0  0  0  0  0  0  0  0
    2.8748    1.6449    0.0000 C   0  0  0  0  0  0  0  0  0  0  0  0
    3.5439    1.1588    0.0000 C   0  0  0  0  0  0  0  0  0  0  0  0
    3.4574    0.3364    0.0000 C   0  0  0  0  0  0  0  0  0  0  0  0
    2.7019   -0.0000    0.0000 C   0  0  0  0  0  0  0  0  0  0  0  0
    2.0329    0.4861    0.0000 C   0  0  0  0  0  0  0  0  0  0  0  0
    0.6637    1.5391    0.0000 S   0  0  0  0  0  0  0  0  0  0  0  0
   -1.0629    1.4920    0.0000 C   0  0  0  0  0  0  0  0  0  0  0  0
   -1.8899    1.4920    0.0000 C   0  0  0  0  0  0  0  0  0  0  0  0
  1  2  1  0  0  0
  2  3  1  0  0  0
  3 19  1  0  0  0
  3  4  1  0  0  0
  4  5  1  0  0  0
  5  6  1  0  0  0
  6  7  1  0  0  0
  7 17  1  0  0  0
  7  8  2  0  0  0
  8  9  1  0  0  0
  9 10  2  0  0  0
 10 11  1  0  0  0
 11 16  1  0  0  0
 11 12  2  0  0  0
 12 13  1  0  0  0
 13 14  2  0  0  0
 14 15  1  0  0  0
 15 16  2  0  0  0
 10 17  1  0  0  0
  6 18  1  0  0  0
 18 19  1  0  0  0
M  END
>  <Entry>
375

>  <title>
19-8779

>  <rigid docking scores>
-18.8182

>  <InChIKey>
LBGQFSDBFALSNQ-UHFFFAOYSA-N

>  <ZINC>
ZINC000148273646

>  <SureChEMBL Patents>
SCHEMBL12244258

>  <Pubchem>
58430542

>  <Mcule>
MCULE-1182674631

>  <MolPort>
MolPort-030-007-375

$$$$
atoms 19 bonds 21
dotmatics
mol io
 19 21  0  0  0  0  0  0  0  0999 V2000
    3.5844   -0.4148    0.0000 N   0  0  0  0  0  0  0  0  0  0  0  0
    3.5851    0.4122    0.0000 C   0  0  0  0  0  0  0  0  0  0  0  0
    4.3017    0.8251    0.0000 O   0  0  0  0  0  0  0  0  0  0  0  0
    2.8693    0.8263    0.0000 C   0  0  0  0  0  0  0  0  0  0  0  0
    2.8693    1.6546    0.0000 C   0  0  0  0  0  0  0  0  0  0  0  0
    2.1534    2.0687    0.0000 N   0  0  0  0  0  0  0  0  0  0  0  0
    1.4317    1.6546    0.0000 C   0  0  0  0  0  0  0  0  0  0  0  0
    0.7158    2.0687    0.0000 C   0  0  0  0  0  0  0  0  0  0  0  0
    0.0000    1.6546    0.0000 C   0  0  0  0  0  0  0  0  0  0  0  0
    0.0000    0.8263    0.0000 C   0  0  0  0  0  0  0  0  0  0  0  0
    0.7158    0.4122    0.0000 C   0  0  0  0  0  0  0  0  0  0  0  0
    1.4317    0.8263    0.0000 C   0  0  0  0  0  0  0  0  0  0  0  0
    2.1534    0.4122    0.0000 C   0  0  0  0  0  0  0  0  0  0  0  0
    2.1594   -0.4148    0.0000 N   0  0  0  0  0  0  0  0  0  0  0  0
    2.8785   -0.8231    0.0000 C   0  0  0  0  0  0  0  0  0  0  0  0
    2.8844   -1.6501    0.0000 C   0  0  0  0  0  0  0  0  0  0  0  0
    2.1712   -2.0687    0.0000 C   0  0  0  0  0  0  0  0  0  0  0  0
    1.4520   -1.6603    0.0000 C   0  0  0  0  0  0  0  0  0  0  0  0
    1.4461   -0.8334    0.0000 C   0  0  0  0  0  0  0  0  0  0  0  0
  1  2  1  0  0  0
  2  3  2  0  0  0
  2  4  1  0  0  0
  4 13  1  0  0  0
  4  5  2  0  0  0
  5  6  1  0  0  0
  6  7  2  0  0  0
  7 12  1  0  0  0
  7  8  1  0  0  0
  8  9  2  0  0  0
  9 10  1  0  0  0
 10 11  2  0  0  0
 11 12  1  0  0  0
 12 13  2  0  0  0
 13 14  1  0  0  0
 14 19  1  0  0  0
 14 15  1  0  0  0
 15 16  1  0  0  0
 16 17  1  0  0  0
 17 18  1  0  0  0
 18 19  1  0  0  0
M  END
>  <Entry>
376

>  <title>
19-9169

>  <rigid docking scores>
-16.1471

>  <InChIKey>
OXRSJICQGGOJPG-UHFFFAOYSA-N

$$$$
atoms 19 bonds 21
dotmatics
mol io
 19 21  0  0  0  0  0  0  0  0999 V2000
    1.4638   -2.6915    0.0000 C   0  0  0  0  0  0  0  0  0  0  0  0
    2.1771   -2.2729    0.0000 C   0  0  0  0  0  0  0  0  0  0  0  0
    2.1712   -1.4459    0.0000 N   0  0  0  0  0  0  0  0  0  0  0  0
    1.4520   -1.0376    0.0000 C   0  0  0  0  0  0  0  0  0  0  0  0
    1.4461   -0.2106    0.0000 C   0  0  0  0  0  0  0  0  0  0  0  0
    2.1594    0.2080    0.0000 N   0  0  0  0  0  0  0  0  0  0  0  0
    2.1534    1.0350    0.0000 C   0  0  0  0  0  0  0  0  0  0  0  0
    2.8693    1.4491    0.0000 N   0  0  0  0  0  0  0  0  0  0  0  0
    2.8693    2.2774    0.0000 C   0  0  0  0  0  0  0  0  0  0  0  0
    3.5851    2.6915    0.0000 C   0  0  0  0  0  0  0  0  0  0  0  0
    2.1534    2.6915    0.0000 N   0  0  0  0  0  0  0  0  0  0  0  0
    1.4317    2.2774    0.0000 C   0  0  0  0  0  0  0  0  0  0  0  0
    0.7158    2.6915    0.0000 C   0  0  0  0  0  0  0  0  0  0  0  0
    0.0000    2.2774    0.0000 C   0  0  0  0  0  0  0  0  0  0  0  0
    0.0000    1.4491    0.0000 C   0  0  0  0  0  0  0  0  0  0  0  0
    0.7158    1.0350    0.0000 C   0  0  0  0  0  0  0  0  0  0  0  0
    1.4317    1.4491    0.0000 C   0  0  0  0  0  0  0  0  0  0  0  0
    2.8785   -0.2003    0.0000 C   0  0  0  0  0  0  0  0  0  0  0  0
    2.8844   -1.0273    0.0000 C   0  0  0  0  0  0  0  0  0  0  0  0
  1  2  1  0  0  0
  2  3  1  0  0  0
  3 19  1  0  0  0
  3  4  1  0  0  0
  4  5  1  0  0  0
  5  6  1  0  0  0
  6  7  1  0  0  0
  7 17  1  0  0  0
  7  8  2  0  0  0
  8  9  1  0  0  0
  9 10  1  0  0  0
  9 11  2  0  0  0
 11 12  1  0  0  0
 12 17  1  0  0  0
 12 13  2  0  0  0
 13 14  1  0  0  0
 14 15  2  0  0  0
 15 16  1  0  0  0
 16 17  2  0  0  0
  6 18  1  0  0  0
 18 19  1  0  0  0
M  END
>  <Entry>
377

>  <title>
19-9172

>  <rigid docking scores>
-16.6199

>  <InChIKey>
JDMXRYMZMBIMNV-UHFFFAOYSA-N

$$$$
atoms 23 bonds 26
dotmatics
mol io
 23 26  0  0  0  0  0  0  0  0999 V2000
    7.8802    2.0706    0.0000 C   0  0  0  0  0  0  0  0  0  0  0  0
    7.1643    1.6565    0.0000 N   0  0  0  0  0  0  0  0  0  0  0  0
    7.1651    0.8295    0.0000 C   0  0  0  0  0  0  0  0  0  0  0  0
    6.4492    0.4154    0.0000 C   0  0  0  0  0  0  0  0  0  0  0  0
    5.7327    0.8282    0.0000 C   0  0  0  0  0  0  0  0  0  0  0  0
    5.0168    0.4141    0.0000 N   0  0  0  0  0  0  0  0  0  0  0  0
    5.0175   -0.4129    0.0000 C   0  0  0  0  0  0  0  0  0  0  0  0
    4.3017   -0.8270    0.0000 C   0  0  0  0  0  0  0  0  0  0  0  0
    3.5851   -0.4141    0.0000 N   0  0  0  0  0  0  0  0  0  0  0  0
    2.8693   -0.8282    0.0000 C   0  0  0  0  0  0  0  0  0  0  0  0
    2.8693   -1.6565    0.0000 C   0  0  0  0  0  0  0  0  0  0  0  0
    2.1534   -2.0706    0.0000 C   0  0  0  0  0  0  0  0  0  0  0  0
    1.4317   -1.6565    0.0000 C   0  0  0  0  0  0  0  0  0  0  0  0
    0.7158   -2.0706    0.0000 C   0  0  0  0  0  0  0  0  0  0  0  0
    0.0000   -1.6565    0.0000 C   0  0  0  0  0  0  0  0  0  0  0  0
    0.0000   -0.8282    0.0000 C   0  0  0  0  0  0  0  0  0  0  0  0
    0.7158   -0.4141    0.0000 C   0  0  0  0  0  0  0  0  0  0  0  0
    1.4317   -0.8282    0.0000 C   0  0  0  0  0  0  0  0  0  0  0  0
    2.1534   -0.4141    0.0000 N   0  0  0  0  0  0  0  0  0  0  0  0
    3.5844    0.4129    0.0000 C   0  0  0  0  0  0  0  0  0  0  0  0
    4.3003    0.8270    0.0000 C   0  0  0  0  0  0  0  0  0  0  0  0
    5.7319    1.6552    0.0000 C   0  0  0  0  0  0  0  0  0  0  0  0
    6.4478    2.0694    0.0000 C   0  0  0  0  0  0  0  0  0  0  0  0
  1  2  1  0  0  0
  2 23  1  0  0  0
  2  3  1  0  0  0
  3  4  1  0  0  0
  4  5  1  0  0  0
  5  6  1  0  0  0
  6 21  1  0  0  0
  6  7  1  0  0  0
  7  8  1  0  0  0
  8  9  1  0  0  0
  9 10  1  0  0  0
 10 19  1  0  0  0
 10 11  2  0  0  0
 11 12  1  0  0  0
 12 13  2  0  0  0
 13 18  1  0  0  0
 13 14  1  0  0  0
 14 15  2  0  0  0
 15 16  1  0  0  0
 16 17  2  0  0  0
 17 18  1  0  0  0
 18 19  2  0  0  0
  9 20  1  0  0  0
 20 21  1  0  0  0
  5 22  1  0  0  0
 22 23  1  0  0  0
M  END
>  <Entry>
378

>  <title>
19-9234

>  <rigid docking scores>
-17.1297

>  <InChIKey>
BYQOGNZLURPNIM-UHFFFAOYSA-N

$$$$
atoms 20 bonds 22
dotmatics
mol io
 20 22  0  0  0  0  0  0  0  0999 V2000
    3.2083   -0.9608    0.0000 O   0  0  0  0  0  0  0  0  0  0  0  0
    3.2076   -0.1338    0.0000 C   0  0  0  0  0  0  0  0  0  0  0  0
    2.4911    0.2791    0.0000 N   0  0  0  0  0  0  0  0  0  0  0  0
    1.7752   -0.1350    0.0000 C   0  0  0  0  0  0  0  0  0  0  0  0
    1.8377   -0.9597    0.0000 C   0  0  0  0  0  0  0  0  0  0  0  0
    1.2320   -1.5227    0.0000 C   0  0  0  0  0  0  0  0  0  0  0  0
    0.4141   -1.4002    0.0000 C   0  0  0  0  0  0  0  0  0  0  0  0
    0.0000   -0.6843    0.0000 C   0  0  0  0  0  0  0  0  0  0  0  0
    0.3015    0.0858    0.0000 C   0  0  0  0  0  0  0  0  0  0  0  0
    1.0915    0.3302    0.0000 C   0  0  0  0  0  0  0  0  0  0  0  0
    3.9235    0.2803    0.0000 C   0  0  0  0  0  0  0  0  0  0  0  0
    4.6393   -0.1338    0.0000 C   0  0  0  0  0  0  0  0  0  0  0  0
    5.3552    0.2803    0.0000 C   0  0  0  0  0  0  0  0  0  0  0  0
    6.1420    0.0259    0.0000 N   0  0  0  0  0  0  0  0  0  0  0  0
    6.6330    0.6945    0.0000 N   0  0  0  0  0  0  0  0  0  0  0  0
    6.1420    1.3630    0.0000 S   0  0  0  0  0  0  0  0  0  0  0  0
    5.3552    1.1086    0.0000 C   0  0  0  0  0  0  0  0  0  0  0  0
    4.6393    1.5227    0.0000 N   0  0  0  0  0  0  0  0  0  0  0  0
    3.9235    1.1086    0.0000 C   0  0  0  0  0  0  0  0  0  0  0  0
    3.2076    1.5227    0.0000 O   0  0  0  0  0  0  0  0  0  0  0  0
  1  2  2  0  0  0
  2  3  1  0  0  0
  3  4  1  0  0  0
  4 10  1  0  0  0
  4  5  1  0  0  0
  5  6  1  0  0  0
  6  7  1  0  0  0
  7  8  1  0  0  0
  8  9  1  0  0  0
  9 10  1  0  0  0
  2 11  1  0  0  0
 11 19  1  0  0  0
 11 12  2  0  0  0
 12 13  1  0  0  0
 13 17  2  0  0  0
 13 14  1  0  0  0
 14 15  2  0  0  0
 15 16  1  0  0  0
 16 17  1  0  0  0
 17 18  1  0  0  0
 18 19  1  0  0  0
 19 20  2  0  0  0
M  END
>  <Entry>
379

>  <title>
20-189

>  <rigid docking scores>
-17.6852

>  <InChIKey>
VUHDLANQONHVME-UHFFFAOYSA-N

$$$$
atoms 23 bonds 25
dotmatics
mol io
 23 25  0  0  0  0  0  0  0  0999 V2000
    5.7296    2.8945    0.0000 C   0  0  0  0  0  0  0  0  0  0  0  0
    5.7296    2.0675    0.0000 C   0  0  0  0  0  0  0  0  0  0  0  0
    6.4458    1.6540    0.0000 C   0  0  0  0  0  0  0  0  0  0  0  0
    6.4458    0.8270    0.0000 C   0  0  0  0  0  0  0  0  0  0  0  0
    5.7296    0.4135    0.0000 C   0  0  0  0  0  0  0  0  0  0  0  0
    5.7296   -0.4135    0.0000 N   0  0  0  0  0  0  0  0  0  0  0  0
    5.0134   -0.8270    0.0000 C   0  0  0  0  0  0  0  0  0  0  0  0
    5.0134   -1.6540    0.0000 C   0  0  0  0  0  0  0  0  0  0  0  0
    4.2972   -2.0675    0.0000 C   0  0  0  0  0  0  0  0  0  0  0  0
    3.5810   -1.6540    0.0000 C   0  0  0  0  0  0  0  0  0  0  0  0
    2.8648   -2.0675    0.0000 C   0  0  0  0  0  0  0  0  0  0  0  0
    2.8648   -2.8945    0.0000 O   0  0  0  0  0  0  0  0  0  0  0  0
    2.1486   -1.6540    0.0000 N   0  0  0  0  0  0  0  0  0  0  0  0
    1.4324   -2.0675    0.0000 C   0  0  0  0  0  0  0  0  0  0  0  0
    0.7162   -1.6540    0.0000 C   0  0  0  0  0  0  0  0  0  0  0  0
    0.7162   -0.8270    0.0000 N   0  0  0  0  0  0  0  0  0  0  0  0
    0.0000   -0.4135    0.0000 C   0  0  0  0  0  0  0  0  0  0  0  0
    1.4324   -0.4135    0.0000 C   0  0  0  0  0  0  0  0  0  0  0  0
    2.1486   -0.8270    0.0000 C   0  0  0  0  0  0  0  0  0  0  0  0
    3.5810   -0.8270    0.0000 C   0  0  0  0  0  0  0  0  0  0  0  0
    4.2972   -0.4135    0.0000 N   0  0  0  0  0  0  0  0  0  0  0  0
    5.0134    0.8270    0.0000 C   0  0  0  0  0  0  0  0  0  0  0  0
    5.0134    1.6540    0.0000 C   0  0  0  0  0  0  0  0  0  0  0  0
  1  2  1  0  0  0
  2 23  1  0  0  0
  2  3  2  0  0  0
  3  4  1  0  0  0
  4  5  2  0  0  0
  5  6  1  0  0  0
  6  7  1  0  0  0
  7 21  1  0  0  0
  7  8  2  0  0  0
  8  9  1  0  0  0
  9 10  2  0  0  0
 10 11  1  0  0  0
 11 12  2  0  0  0
 11 13  1  0  0  0
 13 19  1  0  0  0
 13 14  1  0  0  0
 14 15  1  0  0  0
 15 16  1  0  0  0
 16 17  1  0  0  0
 16 18  1  0  0  0
 18 19  1  0  0  0
 10 20  1  0  0  0
 20 21  2  0  0  0
  5 22  1  0  0  0
 22 23  2  0  0  0
M  END
>  <Entry>
380

>  <title>
20-427

>  <rigid docking scores>
-16.3744

>  <InChIKey>
LDCYSTXIDOJTCW-UHFFFAOYSA-N

$$$$
atoms 21 bonds 23
dotmatics
mol io
 21 23  0  0  0  0  0  0  0  0999 V2000
    0.0000    0.7390    0.0000 O   0  0  0  0  0  0  0  0  0  0  0  0
    0.7162    0.3255    0.0000 C   0  0  0  0  0  0  0  0  0  0  0  0
    0.7162   -0.5015    0.0000 C   0  0  0  0  0  0  0  0  0  0  0  0
    1.4324   -0.9150    0.0000 C   0  0  0  0  0  0  0  0  0  0  0  0
    1.4324   -1.7420    0.0000 C   0  0  0  0  0  0  0  0  0  0  0  0
    0.7162   -2.1555    0.0000 C   0  0  0  0  0  0  0  0  0  0  0  0
    0.0000   -1.7420    0.0000 N   0  0  0  0  0  0  0  0  0  0  0  0
    0.0000   -0.9150    0.0000 C   0  0  0  0  0  0  0  0  0  0  0  0
    1.4324    0.7390    0.0000 N   0  0  0  0  0  0  0  0  0  0  0  0
    1.3706    1.5637    0.0000 C   0  0  0  0  0  0  0  0  0  0  0  0
    1.9768    2.1262    0.0000 C   0  0  0  0  0  0  0  0  0  0  0  0
    2.7946    2.0030    0.0000 C   0  0  0  0  0  0  0  0  0  0  0  0
    3.2081    1.2868    0.0000 N   0  0  0  0  0  0  0  0  0  0  0  0
    4.0328    1.3486    0.0000 C   0  0  0  0  0  0  0  0  0  0  0  0
    4.3916    2.0937    0.0000 N   0  0  0  0  0  0  0  0  0  0  0  0
    5.2163    2.1555    0.0000 C   0  0  0  0  0  0  0  0  0  0  0  0
    5.6822    1.4722    0.0000 C   0  0  0  0  0  0  0  0  0  0  0  0
    5.3233    0.7271    0.0000 C   0  0  0  0  0  0  0  0  0  0  0  0
    4.4987    0.6653    0.0000 N   0  0  0  0  0  0  0  0  0  0  0  0
    2.9060    0.5169    0.0000 C   0  0  0  0  0  0  0  0  0  0  0  0
    2.1157    0.2732    0.0000 C   0  0  0  0  0  0  0  0  0  0  0  0
  1  2  2  0  0  0
  2  3  1  0  0  0
  3  8  1  0  0  0
  3  4  2  0  0  0
  4  5  1  0  0  0
  5  6  2  0  0  0
  6  7  1  0  0  0
  7  8  2  0  0  0
  2  9  1  0  0  0
  9 21  1  0  0  0
  9 10  1  0  0  0
 10 11  1  0  0  0
 11 12  1  0  0  0
 12 13  1  0  0  0
 13 14  1  0  0  0
 14 19  1  0  0  0
 14 15  2  0  0  0
 15 16  1  0  0  0
 16 17  2  0  0  0
 17 18  1  0  0  0
 18 19  2  0  0  0
 13 20  1  0  0  0
 20 21  1  0  0  0
M  END
>  <Entry>
381

>  <title>
20-677

>  <rigid docking scores>
-15.5307

>  <InChIKey>
QPYVWGKIUPVMOJ-UHFFFAOYSA-N

$$$$
atoms 21 bonds 23
dotmatics
mol io
 21 23  0  0  0  0  0  0  0  0999 V2000
    0.0000    0.7390    0.0000 O   0  0  0  0  0  0  0  0  0  0  0  0
    0.7162    0.3255    0.0000 C   0  0  0  0  0  0  0  0  0  0  0  0
    0.7162   -0.5015    0.0000 C   0  0  0  0  0  0  0  0  0  0  0  0
    1.4324   -0.9150    0.0000 C   0  0  0  0  0  0  0  0  0  0  0  0
    1.4324   -1.7420    0.0000 N   0  0  0  0  0  0  0  0  0  0  0  0
    0.7162   -2.1555    0.0000 C   0  0  0  0  0  0  0  0  0  0  0  0
    0.0000   -1.7420    0.0000 N   0  0  0  0  0  0  0  0  0  0  0  0
    0.0000   -0.9150    0.0000 C   0  0  0  0  0  0  0  0  0  0  0  0
    1.4324    0.7390    0.0000 N   0  0  0  0  0  0  0  0  0  0  0  0
    1.3706    1.5637    0.0000 C   0  0  0  0  0  0  0  0  0  0  0  0
    1.9768    2.1262    0.0000 C   0  0  0  0  0  0  0  0  0  0  0  0
    2.7946    2.0030    0.0000 C   0  0  0  0  0  0  0  0  0  0  0  0
    3.2081    1.2868    0.0000 N   0  0  0  0  0  0  0  0  0  0  0  0
    4.0328    1.3486    0.0000 C   0  0  0  0  0  0  0  0  0  0  0  0
    4.3916    2.0937    0.0000 N   0  0  0  0  0  0  0  0  0  0  0  0
    5.2163    2.1555    0.0000 C   0  0  0  0  0  0  0  0  0  0  0  0
    5.6822    1.4722    0.0000 C   0  0  0  0  0  0  0  0  0  0  0  0
    5.3233    0.7271    0.0000 C   0  0  0  0  0  0  0  0  0  0  0  0
    4.4987    0.6653    0.0000 N   0  0  0  0  0  0  0  0  0  0  0  0
    2.9060    0.5169    0.0000 C   0  0  0  0  0  0  0  0  0  0  0  0
    2.1157    0.2732    0.0000 C   0  0  0  0  0  0  0  0  0  0  0  0
  1  2  2  0  0  0
  2  3  1  0  0  0
  3  8  1  0  0  0
  3  4  2  0  0  0
  4  5  1  0  0  0
  5  6  2  0  0  0
  6  7  1  0  0  0
  7  8  2  0  0  0
  2  9  1  0  0  0
  9 21  1  0  0  0
  9 10  1  0  0  0
 10 11  1  0  0  0
 11 12  1  0  0  0
 12 13  1  0  0  0
 13 14  1  0  0  0
 14 19  1  0  0  0
 14 15  2  0  0  0
 15 16  1  0  0  0
 16 17  2  0  0  0
 17 18  1  0  0  0
 18 19  2  0  0  0
 13 20  1  0  0  0
 20 21  1  0  0  0
M  END
>  <Entry>
382

>  <title>
20-678

>  <rigid docking scores>
-16.2724

>  <InChIKey>
XKHOVLNINBUDEG-UHFFFAOYSA-N

$$$$
atoms 21 bonds 23
dotmatics
mol io
 21 23  0  0  0  0  0  0  0  0999 V2000
    6.7343    0.8489    0.0000 N   0  0  0  0  0  0  0  0  0  0  0  0
    6.3993    0.0928    0.0000 C   0  0  0  0  0  0  0  0  0  0  0  0
    6.8866   -0.5754    0.0000 O   0  0  0  0  0  0  0  0  0  0  0  0
    5.5770    0.0048    0.0000 C   0  0  0  0  0  0  0  0  0  0  0  0
    5.0897    0.6730    0.0000 C   0  0  0  0  0  0  0  0  0  0  0  0
    4.2673    0.5851    0.0000 C   0  0  0  0  0  0  0  0  0  0  0  0
    3.9323   -0.1710    0.0000 N   0  0  0  0  0  0  0  0  0  0  0  0
    3.1100   -0.2590    0.0000 C   0  0  0  0  0  0  0  0  0  0  0  0
    2.6227    0.4092    0.0000 C   0  0  0  0  0  0  0  0  0  0  0  0
    2.8763    1.1937    0.0000 C   0  0  0  0  0  0  0  0  0  0  0  0
    2.2098    1.6833    0.0000 N   0  0  0  0  0  0  0  0  0  0  0  0
    1.5433    1.1937    0.0000 N   0  0  0  0  0  0  0  0  0  0  0  0
    1.7969    0.4092    0.0000 C   0  0  0  0  0  0  0  0  0  0  0  0
    1.3096   -0.2590    0.0000 C   0  0  0  0  0  0  0  0  0  0  0  0
    1.6446   -1.0151    0.0000 C   0  0  0  0  0  0  0  0  0  0  0  0
    1.1573   -1.6833    0.0000 C   0  0  0  0  0  0  0  0  0  0  0  0
    0.3350   -1.5953    0.0000 C   0  0  0  0  0  0  0  0  0  0  0  0
    0.0000   -0.8392    0.0000 C   0  0  0  0  0  0  0  0  0  0  0  0
    0.4873   -0.1710    0.0000 C   0  0  0  0  0  0  0  0  0  0  0  0
    4.4197   -0.8392    0.0000 C   0  0  0  0  0  0  0  0  0  0  0  0
    5.2420   -0.7513    0.0000 C   0  0  0  0  0  0  0  0  0  0  0  0
  1  2  1  0  0  0
  2  3  2  0  0  0
  2  4  1  0  0  0
  4 21  1  0  0  0
  4  5  1  0  0  0
  5  6  1  0  0  0
  6  7  1  0  0  0
  7  8  1  0  0  0
  8  9  1  0  0  0
  9 13  1  0  0  0
  9 10  2  0  0  0
 10 11  1  0  0  0
 11 12  1  0  0  0
 12 13  2  0  0  0
 13 14  1  0  0  0
 14 19  1  0  0  0
 14 15  2  0  0  0
 15 16  1  0  0  0
 16 17  2  0  0  0
 17 18  1  0  0  0
 18 19  2  0  0  0
  7 20  1  0  0  0
 20 21  1  0  0  0
M  END
>  <Entry>
383

>  <title>
20-1130

>  <rigid docking scores>
-16.2276

>  <InChIKey>
DCOPUQMJVRHLDJ-UHFFFAOYSA-N

>  <Mcule>
MCULE-4145770763

$$$$
atoms 22 bonds 24
dotmatics
mol io
 22 24  0  0  0  0  0  0  0  0999 V2000
    7.8621   -0.0032    0.0000 C   0  0  0  0  0  0  0  0  0  0  0  0
    7.4492    0.7133    0.0000 N   0  0  0  0  0  0  0  0  0  0  0  0
    7.8634    1.4292    0.0000 C   0  0  0  0  0  0  0  0  0  0  0  0
    6.6222    0.7140    0.0000 C   0  0  0  0  0  0  0  0  0  0  0  0
    6.2081   -0.0018    0.0000 C   0  0  0  0  0  0  0  0  0  0  0  0
    5.3811   -0.0011    0.0000 C   0  0  0  0  0  0  0  0  0  0  0  0
    4.9682    0.7155    0.0000 C   0  0  0  0  0  0  0  0  0  0  0  0
    4.1412    0.7162    0.0000 N   0  0  0  0  0  0  0  0  0  0  0  0
    3.7271    0.0004    0.0000 C   0  0  0  0  0  0  0  0  0  0  0  0
    4.1412   -0.7155    0.0000 N   0  0  0  0  0  0  0  0  0  0  0  0
    3.7271   -1.4313    0.0000 C   0  0  0  0  0  0  0  0  0  0  0  0
    2.8989   -1.4313    0.0000 C   0  0  0  0  0  0  0  0  0  0  0  0
    2.4847   -0.7155    0.0000 C   0  0  0  0  0  0  0  0  0  0  0  0
    1.6565   -0.7155    0.0000 C   0  0  0  0  0  0  0  0  0  0  0  0
    1.2424   -1.4313    0.0000 C   0  0  0  0  0  0  0  0  0  0  0  0
    0.4141   -1.4313    0.0000 C   0  0  0  0  0  0  0  0  0  0  0  0
    0.0000   -0.7155    0.0000 C   0  0  0  0  0  0  0  0  0  0  0  0
    0.4141    0.0004    0.0000 C   0  0  0  0  0  0  0  0  0  0  0  0
    1.2424    0.0004    0.0000 N   0  0  0  0  0  0  0  0  0  0  0  0
    2.8989    0.0004    0.0000 N   0  0  0  0  0  0  0  0  0  0  0  0
    5.3824    1.4313    0.0000 C   0  0  0  0  0  0  0  0  0  0  0  0
    6.2094    1.4306    0.0000 C   0  0  0  0  0  0  0  0  0  0  0  0
  1  2  1  0  0  0
  2  3  1  0  0  0
  2  4  1  0  0  0
  4 22  1  0  0  0
  4  5  2  0  0  0
  5  6  1  0  0  0
  6  7  2  0  0  0
  7  8  1  0  0  0
  8  9  1  0  0  0
  9 20  1  0  0  0
  9 10  2  0  0  0
 10 11  1  0  0  0
 11 12  2  0  0  0
 12 13  1  0  0  0
 13 14  1  0  0  0
 14 19  1  0  0  0
 14 15  2  0  0  0
 15 16  1  0  0  0
 16 17  2  0  0  0
 17 18  1  0  0  0
 18 19  2  0  0  0
 13 20  2  0  0  0
  7 21  1  0  0  0
 21 22  2  0  0  0
M  END
>  <Entry>
384

>  <title>
20-2260

>  <rigid docking scores>
-16.7898

>  <InChIKey>
OXNZKGXPAXNVDS-UHFFFAOYSA-N

>  <ChEMBL>
CHEMBL94285

>  <ZINC>
ZINC000026656050

>  <SureChEMBL Patents>
SCHEMBL7476302

>  <Pubchem>
14347073

$$$$
atoms 21 bonds 23
dotmatics
mol io
 21 23  0  0  0  0  0  0  0  0999 V2000
    2.3690   -3.6435    0.0000 C   0  0  0  0  0  0  0  0  0  0  0  0
    2.9248   -3.0311    0.0000 O   0  0  0  0  0  0  0  0  0  0  0  0
    2.6724   -2.2436    0.0000 C   0  0  0  0  0  0  0  0  0  0  0  0
    1.8641   -2.0684    0.0000 C   0  0  0  0  0  0  0  0  0  0  0  0
    1.6117   -1.2809    0.0000 C   0  0  0  0  0  0  0  0  0  0  0  0
    2.1675   -0.6685    0.0000 C   0  0  0  0  0  0  0  0  0  0  0  0
    1.9151    0.1190    0.0000 N   0  0  0  0  0  0  0  0  0  0  0  0
    2.4709    0.7314    0.0000 C   0  0  0  0  0  0  0  0  0  0  0  0
    3.2792    0.5562    0.0000 O   0  0  0  0  0  0  0  0  0  0  0  0
    2.2185    1.5189    0.0000 C   0  0  0  0  0  0  0  0  0  0  0  0
    2.7096    2.1874    0.0000 N   0  0  0  0  0  0  0  0  0  0  0  0
    2.2185    2.8560    0.0000 N   0  0  0  0  0  0  0  0  0  0  0  0
    2.4709    3.6435    0.0000 C   0  0  0  0  0  0  0  0  0  0  0  0
    1.4317    2.6016    0.0000 C   0  0  0  0  0  0  0  0  0  0  0  0
    0.7158    3.0157    0.0000 C   0  0  0  0  0  0  0  0  0  0  0  0
    0.0000    2.6016    0.0000 C   0  0  0  0  0  0  0  0  0  0  0  0
    0.0000    1.7733    0.0000 C   0  0  0  0  0  0  0  0  0  0  0  0
    0.7158    1.3592    0.0000 C   0  0  0  0  0  0  0  0  0  0  0  0
    1.4317    1.7733    0.0000 C   0  0  0  0  0  0  0  0  0  0  0  0
    2.9758   -0.8437    0.0000 C   0  0  0  0  0  0  0  0  0  0  0  0
    3.2282   -1.6312    0.0000 C   0  0  0  0  0  0  0  0  0  0  0  0
  1  2  1  0  0  0
  2  3  1  0  0  0
  3 21  1  0  0  0
  3  4  2  0  0  0
  4  5  1  0  0  0
  5  6  2  0  0  0
  6  7  1  0  0  0
  7  8  1  0  0  0
  8  9  2  0  0  0
  8 10  1  0  0  0
 10 19  1  0  0  0
 10 11  2  0  0  0
 11 12  1  0  0  0
 12 13  1  0  0  0
 12 14  1  0  0  0
 14 19  1  0  0  0
 14 15  2  0  0  0
 15 16  1  0  0  0
 16 17  2  0  0  0
 17 18  1  0  0  0
 18 19  2  0  0  0
  6 20  1  0  0  0
 20 21  2  0  0  0
M  END
>  <Entry>
385

>  <title>
2-8855

>  <rigid docking scores>
-15.6079

>  <InChIKey>
IUBKWTCOAAWDRO-UHFFFAOYSA-N

>  <Pubchem>
110860089

$$$$
atoms 23 bonds 25
dotmatics
mol io
 23 25  0  0  0  0  0  0  0  0999 V2000
    4.3003   -2.4822    0.0000 N   0  0  0  0  0  0  0  0  0  0  0  0
    4.3010   -1.6552    0.0000 C   0  0  0  0  0  0  0  0  0  0  0  0
    5.0175   -1.2423    0.0000 O   0  0  0  0  0  0  0  0  0  0  0  0
    3.5851   -1.2411    0.0000 C   0  0  0  0  0  0  0  0  0  0  0  0
    3.5851   -0.4128    0.0000 C   0  0  0  0  0  0  0  0  0  0  0  0
    2.8693    0.0013    0.0000 N   0  0  0  0  0  0  0  0  0  0  0  0
    2.8752    0.8283    0.0000 C   0  0  0  0  0  0  0  0  0  0  0  0
    3.5943    1.2366    0.0000 C   0  0  0  0  0  0  0  0  0  0  0  0
    4.3076    0.8180    0.0000 C   0  0  0  0  0  0  0  0  0  0  0  0
    5.0267    1.2264    0.0000 C   0  0  0  0  0  0  0  0  0  0  0  0
    5.0326    2.0534    0.0000 C   0  0  0  0  0  0  0  0  0  0  0  0
    4.3194    2.4720    0.0000 C   0  0  0  0  0  0  0  0  0  0  0  0
    3.6002    2.0636    0.0000 C   0  0  0  0  0  0  0  0  0  0  0  0
    2.8870    2.4822    0.0000 F   0  0  0  0  0  0  0  0  0  0  0  0
    2.1475   -0.4128    0.0000 C   0  0  0  0  0  0  0  0  0  0  0  0
    1.4317    0.0013    0.0000 C   0  0  0  0  0  0  0  0  0  0  0  0
    0.7158   -0.4128    0.0000 C   0  0  0  0  0  0  0  0  0  0  0  0
    0.7158   -1.2411    0.0000 C   0  0  0  0  0  0  0  0  0  0  0  0
    0.0000   -1.6552    0.0000 Cl  0  0  0  0  0  0  0  0  0  0  0  0
    1.4317   -1.6552    0.0000 C   0  0  0  0  0  0  0  0  0  0  0  0
    2.1475   -1.2411    0.0000 C   0  0  0  0  0  0  0  0  0  0  0  0
    2.8693   -1.6552    0.0000 C   0  0  0  0  0  0  0  0  0  0  0  0
    2.8752   -2.4822    0.0000 O   0  0  0  0  0  0  0  0  0  0  0  0
  1  2  1  0  0  0
  2  3  2  0  0  0
  2  4  1  0  0  0
  4 22  1  0  0  0
  4  5  2  0  0  0
  5  6  1  0  0  0
  6  7  1  0  0  0
  7  8  1  0  0  0
  8 13  1  0  0  0
  8  9  2  0  0  0
  9 10  1  0  0  0
 10 11  2  0  0  0
 11 12  1  0  0  0
 12 13  2  0  0  0
 13 14  1  0  0  0
  6 15  1  0  0  0
 15 21  1  0  0  0
 15 16  2  0  0  0
 16 17  1  0  0  0
 17 18  2  0  0  0
 18 19  1  0  0  0
 18 20  1  0  0  0
 20 21  2  0  0  0
 21 22  1  0  0  0
 22 23  2  0  0  0
M  END
>  <Entry>
386

>  <title>
20-4936

>  <rigid docking scores>
-15.7788

>  <InChIKey>
XVGSQFMBOBZCBD-UHFFFAOYSA-N

$$$$
atoms 25 bonds 28
dotmatics
mol io
 25 28  0  0  0  0  0  0  0  0999 V2000
    3.5839    0.2071    0.0000 O   0  0  0  0  0  0  0  0  0  0  0  0
    4.3004   -0.2058    0.0000 C   0  0  0  0  0  0  0  0  0  0  0  0
    4.3012   -1.0328    0.0000 C   0  0  0  0  0  0  0  0  0  0  0  0
    3.5853   -1.4469    0.0000 N   0  0  0  0  0  0  0  0  0  0  0  0
    2.8695   -1.0328    0.0000 N   0  0  0  0  0  0  0  0  0  0  0  0
    2.1477   -1.4469    0.0000 C   0  0  0  0  0  0  0  0  0  0  0  0
    2.1477   -2.2752    0.0000 C   0  0  0  0  0  0  0  0  0  0  0  0
    2.8695   -2.6893    0.0000 C   0  0  0  0  0  0  0  0  0  0  0  0
    3.5853   -2.2752    0.0000 C   0  0  0  0  0  0  0  0  0  0  0  0
    4.3012   -2.6893    0.0000 O   0  0  0  0  0  0  0  0  0  0  0  0
    1.4319   -2.6893    0.0000 C   0  0  0  0  0  0  0  0  0  0  0  0
    0.7160   -2.2752    0.0000 C   0  0  0  0  0  0  0  0  0  0  0  0
    0.7160   -1.4469    0.0000 C   0  0  0  0  0  0  0  0  0  0  0  0
    0.0000   -1.0325    0.0000 C   0  0  0  0  0  0  0  0  0  0  0  0
    0.0004   -0.2055    0.0000 C   0  0  0  0  0  0  0  0  0  0  0  0
    0.7167    0.2077    0.0000 C   0  0  0  0  0  0  0  0  0  0  0  0
    1.4328   -0.2061    0.0000 C   0  0  0  0  0  0  0  0  0  0  0  0
    1.4319   -1.0328    0.0000 C   0  0  0  0  0  0  0  0  0  0  0  0
    5.0163    0.2083    0.0000 N   0  0  0  0  0  0  0  0  0  0  0  0
    5.0156    1.0353    0.0000 C   0  0  0  0  0  0  0  0  0  0  0  0
    5.7314    1.4494    0.0000 C   0  0  0  0  0  0  0  0  0  0  0  0
    5.7307    2.2764    0.0000 C   0  0  0  0  0  0  0  0  0  0  0  0
    5.0141    2.6893    0.0000 C   0  0  0  0  0  0  0  0  0  0  0  0
    4.2983    2.2752    0.0000 C   0  0  0  0  0  0  0  0  0  0  0  0
    4.2990    1.4482    0.0000 C   0  0  0  0  0  0  0  0  0  0  0  0
  1  2  2  0  0  0
  2  3  1  0  0  0
  3  4  1  0  0  0
  4  9  1  0  0  0
  4  5  1  0  0  0
  5  6  2  0  0  0
  6 18  1  0  0  0
  6  7  1  0  0  0
  7  8  2  0  0  0
  8  9  1  0  0  0
  9 10  2  0  0  0
  7 11  1  0  0  0
 11 12  1  0  0  0
 12 13  1  0  0  0
 13 18  1  0  0  0
 13 14  2  0  0  0
 14 15  1  0  0  0
 15 16  2  0  0  0
 16 17  1  0  0  0
 17 18  2  0  0  0
  2 19  1  0  0  0
 19 20  1  0  0  0
 20 25  1  0  0  0
 20 21  2  0  0  0
 21 22  1  0  0  0
 22 23  2  0  0  0
 23 24  1  0  0  0
 24 25  2  0  0  0
M  END
>  <Entry>
387

>  <title>
20-5140

>  <rigid docking scores>
-17.7628

>  <InChIKey>
KZONABWPEOWJCK-UHFFFAOYSA-N

$$$$
atoms 21 bonds 24
dotmatics
mol io
 21 24  0  0  0  0  0  0  0  0999 V2000
    0.0000    1.1570    0.0000 C   0  0  0  0  0  0  0  0  0  0  0  0
    0.0000    0.3287    0.0000 C   0  0  0  0  0  0  0  0  0  0  0  0
    0.7158   -0.0854    0.0000 C   0  0  0  0  0  0  0  0  0  0  0  0
    1.4317    0.3287    0.0000 C   0  0  0  0  0  0  0  0  0  0  0  0
    2.1534   -0.0854    0.0000 C   0  0  0  0  0  0  0  0  0  0  0  0
    2.1594   -0.9124    0.0000 N   0  0  0  0  0  0  0  0  0  0  0  0
    2.8785   -1.3207    0.0000 C   0  0  0  0  0  0  0  0  0  0  0  0
    2.8844   -2.1477    0.0000 C   0  0  0  0  0  0  0  0  0  0  0  0
    2.1712   -2.5663    0.0000 O   0  0  0  0  0  0  0  0  0  0  0  0
    1.4520   -2.1579    0.0000 C   0  0  0  0  0  0  0  0  0  0  0  0
    1.4461   -1.3310    0.0000 C   0  0  0  0  0  0  0  0  0  0  0  0
    2.8693    0.3287    0.0000 N   0  0  0  0  0  0  0  0  0  0  0  0
    2.8693    1.1570    0.0000 C   0  0  0  0  0  0  0  0  0  0  0  0
    3.5851    1.5711    0.0000 N   0  0  0  0  0  0  0  0  0  0  0  0
    3.6709    2.3937    0.0000 C   0  0  0  0  0  0  0  0  0  0  0  0
    4.4796    2.5663    0.0000 C   0  0  0  0  0  0  0  0  0  0  0  0
    4.8938    1.8505    0.0000 C   0  0  0  0  0  0  0  0  0  0  0  0
    4.3409    1.2354    0.0000 C   0  0  0  0  0  0  0  0  0  0  0  0
    2.1534    1.5711    0.0000 N   0  0  0  0  0  0  0  0  0  0  0  0
    1.4317    1.1570    0.0000 C   0  0  0  0  0  0  0  0  0  0  0  0
    0.7158    1.5711    0.0000 C   0  0  0  0  0  0  0  0  0  0  0  0
  1 21  1  0  0  0
  1  2  2  0  0  0
  2  3  1  0  0  0
  3  4  2  0  0  0
  4 20  1  0  0  0
  4  5  1  0  0  0
  5  6  1  0  0  0
  6 11  1  0  0  0
  6  7  1  0  0  0
  7  8  1  0  0  0
  8  9  1  0  0  0
  9 10  1  0  0  0
 10 11  1  0  0  0
  5 12  2  0  0  0
 12 13  1  0  0  0
 13 14  1  0  0  0
 14 18  1  0  0  0
 14 15  1  0  0  0
 15 16  1  0  0  0
 16 17  1  0  0  0
 17 18  1  0  0  0
 13 19  2  0  0  0
 19 20  1  0  0  0
 20 21  2  0  0  0
M  END
>  <Entry>
388

>  <title>
20-5495

>  <rigid docking scores>
-16.7835

>  <InChIKey>
GHPVKUSPTWSQMP-UHFFFAOYSA-N

>  <eMolecules>
31200001

$$$$
atoms 21 bonds 23
dotmatics
mol io
 21 23  0  0  0  0  0  0  0  0999 V2000
    3.8350   -1.4391    0.0000 O   0  0  0  0  0  0  0  0  0  0  0  0
    3.2792   -0.8267    0.0000 C   0  0  0  0  0  0  0  0  0  0  0  0
    2.4709   -1.0019    0.0000 C   0  0  0  0  0  0  0  0  0  0  0  0
    2.2185   -1.7894    0.0000 N   0  0  0  0  0  0  0  0  0  0  0  0
    2.7096   -2.4579    0.0000 N   0  0  0  0  0  0  0  0  0  0  0  0
    2.2185   -3.1264    0.0000 N   0  0  0  0  0  0  0  0  0  0  0  0
    1.4317   -2.8720    0.0000 C   0  0  0  0  0  0  0  0  0  0  0  0
    0.7158   -3.2862    0.0000 C   0  0  0  0  0  0  0  0  0  0  0  0
    0.0000   -2.8720    0.0000 C   0  0  0  0  0  0  0  0  0  0  0  0
    0.0000   -2.0438    0.0000 C   0  0  0  0  0  0  0  0  0  0  0  0
    0.7158   -1.6297    0.0000 C   0  0  0  0  0  0  0  0  0  0  0  0
    1.4317   -2.0438    0.0000 C   0  0  0  0  0  0  0  0  0  0  0  0
    3.5316   -0.0392    0.0000 N   0  0  0  0  0  0  0  0  0  0  0  0
    4.3398    0.1360    0.0000 C   0  0  0  0  0  0  0  0  0  0  0  0
    4.5922    0.9236    0.0000 C   0  0  0  0  0  0  0  0  0  0  0  0
    4.0364    1.5359    0.0000 C   0  0  0  0  0  0  0  0  0  0  0  0
    4.2888    2.3235    0.0000 C   0  0  0  0  0  0  0  0  0  0  0  0
    5.0971    2.4986    0.0000 C   0  0  0  0  0  0  0  0  0  0  0  0
    5.3495    3.2862    0.0000 Cl  0  0  0  0  0  0  0  0  0  0  0  0
    5.6529    1.8863    0.0000 C   0  0  0  0  0  0  0  0  0  0  0  0
    5.4005    1.0987    0.0000 C   0  0  0  0  0  0  0  0  0  0  0  0
  1  2  2  0  0  0
  2  3  1  0  0  0
  3  4  1  0  0  0
  4 12  1  0  0  0
  4  5  1  0  0  0
  5  6  2  0  0  0
  6  7  1  0  0  0
  7 12  1  0  0  0
  7  8  2  0  0  0
  8  9  1  0  0  0
  9 10  2  0  0  0
 10 11  1  0  0  0
 11 12  2  0  0  0
  2 13  1  0  0  0
 13 14  1  0  0  0
 14 15  1  0  0  0
 15 21  1  0  0  0
 15 16  2  0  0  0
 16 17  1  0  0  0
 17 18  2  0  0  0
 18 19  1  0  0  0
 18 20  1  0  0  0
 20 21  2  0  0  0
M  END
>  <Entry>
389

>  <title>
20-5610

>  <rigid docking scores>
-15.8503

>  <InChIKey>
IVVGEASRAXLBSQ-UHFFFAOYSA-N

>  <ZINC>
ZINC000005109815

>  <eMolecules>
27655062

>  <Pubchem>
7504210

>  <Mcule>
MCULE-4961924062

>  <MolPort>
MolPort-007-435-014

$$$$
atoms 22 bonds 24
dotmatics
mol io
 22 24  0  0  0  0  0  0  0  0999 V2000
   -1.3962    0.7162    0.0000 C   0  0  0  0  0  0  0  0  0  0  0  0
   -0.9827    1.4324    0.0000 C   0  0  0  0  0  0  0  0  0  0  0  0
   -0.1557    1.4324    0.0000 C   0  0  0  0  0  0  0  0  0  0  0  0
    0.2578    2.1486    0.0000 O   0  0  0  0  0  0  0  0  0  0  0  0
    0.2578    0.7162    0.0000 N   0  0  0  0  0  0  0  0  0  0  0  0
    1.0848    0.7162    0.0000 C   0  0  0  0  0  0  0  0  0  0  0  0
    1.4983    1.4324    0.0000 C   0  0  0  0  0  0  0  0  0  0  0  0
    2.3253    1.4324    0.0000 C   0  0  0  0  0  0  0  0  0  0  0  0
    2.7388    0.7162    0.0000 C   0  0  0  0  0  0  0  0  0  0  0  0
    2.3253   -0.0000    0.0000 N   0  0  0  0  0  0  0  0  0  0  0  0
    1.4983   -0.0000    0.0000 C   0  0  0  0  0  0  0  0  0  0  0  0
   -1.3962    2.1486    0.0000 C   0  0  0  0  0  0  0  0  0  0  0  0
   -2.2232    2.1486    0.0000 C   0  0  0  0  0  0  0  0  0  0  0  0
   -2.6367    2.8648    0.0000 C   0  0  0  0  0  0  0  0  0  0  0  0
   -2.2232    3.5810    0.0000 C   0  0  0  0  0  0  0  0  0  0  0  0
   -1.3962    3.5810    0.0000 C   0  0  0  0  0  0  0  0  0  0  0  0
   -0.9827    2.8648    0.0000 C   0  0  0  0  0  0  0  0  0  0  0  0
   -0.8806    4.2276    0.0000 O   0  0  0  0  0  0  0  0  0  0  0  0
   -1.0646    5.0339    0.0000 C   0  0  0  0  0  0  0  0  0  0  0  0
   -1.8097    5.3927    0.0000 C   0  0  0  0  0  0  0  0  0  0  0  0
   -2.5548    5.0339    0.0000 C   0  0  0  0  0  0  0  0  0  0  0  0
   -2.7388    4.2276    0.0000 O   0  0  0  0  0  0  0  0  0  0  0  0
  1  2  1  0  0  0
  2  3  1  0  0  0
  3  4  2  0  0  0
  3  5  1  0  0  0
  5  6  1  0  0  0
  6 11  1  0  0  0
  6  7  2  0  0  0
  7  8  1  0  0  0
  8  9  2  0  0  0
  9 10  1  0  0  0
 10 11  2  0  0  0
  2 12  1  0  0  0
 12 17  1  0  0  0
 12 13  2  0  0  0
 13 14  1  0  0  0
 14 15  2  0  0  0
 15 22  1  0  0  0
 15 16  1  0  0  0
 16 17  2  0  0  0
 16 18  1  0  0  0
 18 19  1  0  0  0
 19 20  1  0  0  0
 20 21  1  0  0  0
 21 22  1  0  0  0
M  END
>  <Entry>
390

>  <title>
20-6718

>  <rigid docking scores>
-16.1713

>  <InChIKey>
ZNCGYXCIWZTKNG-UHFFFAOYSA-N

$$$$
atoms 19 bonds 21
dotmatics
mol io
 19 21  0  0  0  0  0  0  0  0999 V2000
    4.9682   -0.9216    0.0000 O   0  0  0  0  0  0  0  0  0  0  0  0
    4.1412   -0.9216    0.0000 C   0  0  0  0  0  0  0  0  0  0  0  0
    3.7271   -1.6374    0.0000 C   0  0  0  0  0  0  0  0  0  0  0  0
    2.8989   -1.6374    0.0000 C   0  0  0  0  0  0  0  0  0  0  0  0
    2.4847   -0.9216    0.0000 C   0  0  0  0  0  0  0  0  0  0  0  0
    1.6565   -0.9216    0.0000 C   0  0  0  0  0  0  0  0  0  0  0  0
    1.2424   -1.6374    0.0000 C   0  0  0  0  0  0  0  0  0  0  0  0
    0.4141   -1.6374    0.0000 C   0  0  0  0  0  0  0  0  0  0  0  0
    0.0000   -0.9216    0.0000 C   0  0  0  0  0  0  0  0  0  0  0  0
    0.4141   -0.2057    0.0000 C   0  0  0  0  0  0  0  0  0  0  0  0
    1.2424   -0.2057    0.0000 C   0  0  0  0  0  0  0  0  0  0  0  0
    2.8989   -0.2057    0.0000 N   0  0  0  0  0  0  0  0  0  0  0  0
    3.7271   -0.2057    0.0000 N   0  0  0  0  0  0  0  0  0  0  0  0
    4.1412    0.5101    0.0000 C   0  0  0  0  0  0  0  0  0  0  0  0
    4.9682    0.5094    0.0000 C   0  0  0  0  0  0  0  0  0  0  0  0
    5.3824    1.2252    0.0000 N   0  0  0  0  0  0  0  0  0  0  0  0
    6.2094    1.2245    0.0000 C   0  0  0  0  0  0  0  0  0  0  0  0
    6.9259    1.6374    0.0000 C   0  0  0  0  0  0  0  0  0  0  0  0
    6.9252    0.8104    0.0000 C   0  0  0  0  0  0  0  0  0  0  0  0
  1  2  2  0  0  0
  2 13  1  0  0  0
  2  3  1  0  0  0
  3  4  2  0  0  0
  4  5  1  0  0  0
  5  6  1  0  0  0
  6 11  1  0  0  0
  6  7  2  0  0  0
  7  8  1  0  0  0
  8  9  2  0  0  0
  9 10  1  0  0  0
 10 11  2  0  0  0
  5 12  2  0  0  0
 12 13  1  0  0  0
 13 14  1  0  0  0
 14 15  1  0  0  0
 15 16  1  0  0  0
 16 17  1  0  0  0
 17 19  1  0  0  0
 17 18  1  0  0  0
 18 19  1  0  0  0
M  END
>  <Entry>
391

>  <title>
2-9127

>  <rigid docking scores>
-17.5529

>  <InChIKey>
IVUJEXDODIGMCZ-UHFFFAOYSA-N

$$$$
atoms 21 bonds 23
dotmatics
mol io
 21 23  0  0  0  0  0  0  0  0999 V2000
    3.5366   -0.6658    0.0000 O   0  0  0  0  0  0  0  0  0  0  0  0
    3.9501    0.0504    0.0000 C   0  0  0  0  0  0  0  0  0  0  0  0
    4.7771    0.0504    0.0000 C   0  0  0  0  0  0  0  0  0  0  0  0
    5.1906   -0.6658    0.0000 N   0  0  0  0  0  0  0  0  0  0  0  0
    6.0176   -0.6658    0.0000 C   0  0  0  0  0  0  0  0  0  0  0  0
    6.3764    0.0793    0.0000 C   0  0  0  0  0  0  0  0  0  0  0  0
    7.1826    0.2634    0.0000 C   0  0  0  0  0  0  0  0  0  0  0  0
    7.8292   -0.2523    0.0000 C   0  0  0  0  0  0  0  0  0  0  0  0
    7.8292   -1.0793    0.0000 C   0  0  0  0  0  0  0  0  0  0  0  0
    7.1826   -1.5949    0.0000 C   0  0  0  0  0  0  0  0  0  0  0  0
    6.3764   -1.4109    0.0000 C   0  0  0  0  0  0  0  0  0  0  0  0
    3.5366    0.7666    0.0000 N   0  0  0  0  0  0  0  0  0  0  0  0
    2.7096    0.7666    0.0000 C   0  0  0  0  0  0  0  0  0  0  0  0
    2.2185    0.0981    0.0000 N   0  0  0  0  0  0  0  0  0  0  0  0
    1.4317    0.3525    0.0000 C   0  0  0  0  0  0  0  0  0  0  0  0
    0.7158   -0.0616    0.0000 C   0  0  0  0  0  0  0  0  0  0  0  0
    0.0000    0.3525    0.0000 C   0  0  0  0  0  0  0  0  0  0  0  0
    0.0000    1.1808    0.0000 C   0  0  0  0  0  0  0  0  0  0  0  0
    0.7158    1.5949    0.0000 C   0  0  0  0  0  0  0  0  0  0  0  0
    1.4317    1.1808    0.0000 C   0  0  0  0  0  0  0  0  0  0  0  0
    2.2185    1.4352    0.0000 S   0  0  0  0  0  0  0  0  0  0  0  0
  1  2  2  0  0  0
  2  3  1  0  0  0
  3  4  1  0  0  0
  4  5  1  0  0  0
  5 11  1  0  0  0
  5  6  1  0  0  0
  6  7  1  0  0  0
  7  8  1  0  0  0
  8  9  1  0  0  0
  9 10  1  0  0  0
 10 11  1  0  0  0
  2 12  1  0  0  0
 12 13  1  0  0  0
 13 21  1  0  0  0
 13 14  2  0  0  0
 14 15  1  0  0  0
 15 20  1  0  0  0
 15 16  2  0  0  0
 16 17  1  0  0  0
 17 18  2  0  0  0
 18 19  1  0  0  0
 19 20  2  0  0  0
 20 21  1  0  0  0
M  END
>  <Entry>
392

>  <title>
20-8227

>  <rigid docking scores>
-19.4498

>  <InChIKey>
ZRTJRZPUOZGUMA-UHFFFAOYSA-N

$$$$
atoms 19 bonds 21
dotmatics
mol io
 19 21  0  0  0  0  0  0  0  0999 V2000
    3.5366   -0.4141    0.0000 O   0  0  0  0  0  0  0  0  0  0  0  0
    3.9501    0.3021    0.0000 C   0  0  0  0  0  0  0  0  0  0  0  0
    4.7771    0.3021    0.0000 C   0  0  0  0  0  0  0  0  0  0  0  0
    5.1906   -0.4141    0.0000 N   0  0  0  0  0  0  0  0  0  0  0  0
    6.0176   -0.4141    0.0000 C   0  0  0  0  0  0  0  0  0  0  0  0
    6.4311   -1.1303    0.0000 C   0  0  0  0  0  0  0  0  0  0  0  0
    6.0176   -1.8465    0.0000 C   0  0  0  0  0  0  0  0  0  0  0  0
    5.1906   -1.8465    0.0000 C   0  0  0  0  0  0  0  0  0  0  0  0
    4.7771   -1.1303    0.0000 C   0  0  0  0  0  0  0  0  0  0  0  0
    3.5366    1.0183    0.0000 N   0  0  0  0  0  0  0  0  0  0  0  0
    2.7096    1.0183    0.0000 C   0  0  0  0  0  0  0  0  0  0  0  0
    2.2185    0.3498    0.0000 N   0  0  0  0  0  0  0  0  0  0  0  0
    1.4317    0.6042    0.0000 C   0  0  0  0  0  0  0  0  0  0  0  0
    0.7158    0.1900    0.0000 C   0  0  0  0  0  0  0  0  0  0  0  0
    0.0000    0.6042    0.0000 C   0  0  0  0  0  0  0  0  0  0  0  0
    0.0000    1.4324    0.0000 C   0  0  0  0  0  0  0  0  0  0  0  0
    0.7158    1.8465    0.0000 C   0  0  0  0  0  0  0  0  0  0  0  0
    1.4317    1.4324    0.0000 C   0  0  0  0  0  0  0  0  0  0  0  0
    2.2185    1.6868    0.0000 S   0  0  0  0  0  0  0  0  0  0  0  0
  1  2  2  0  0  0
  2  3  1  0  0  0
  3  4  1  0  0  0
  4  9  1  0  0  0
  4  5  1  0  0  0
  5  6  1  0  0  0
  6  7  1  0  0  0
  7  8  1  0  0  0
  8  9  1  0  0  0
  2 10  1  0  0  0
 10 11  1  0  0  0
 11 19  1  0  0  0
 11 12  2  0  0  0
 12 13  1  0  0  0
 13 18  1  0  0  0
 13 14  2  0  0  0
 14 15  1  0  0  0
 15 16  2  0  0  0
 16 17  1  0  0  0
 17 18  2  0  0  0
 18 19  1  0  0  0
M  END
>  <Entry>
393

>  <title>
20-8677

>  <rigid docking scores>
-19.808

>  <InChIKey>
OMEJXRXXPJVIEM-UHFFFAOYSA-N

>  <ZINC>
ZINC000000287575

>  <eMolecules>
4270816

>  <Pubchem>
788494

>  <Mcule>
MCULE-7889083292

>  <MolPort>
MolPort-001-887-694

$$$$
atoms 21 bonds 23
dotmatics
mol io
 21 23  0  0  0  0  0  0  0  0999 V2000
    6.6411    2.5647    0.0000 C   0  0  0  0  0  0  0  0  0  0  0  0
    5.9249    2.1512    0.0000 O   0  0  0  0  0  0  0  0  0  0  0  0
    5.9249    1.3242    0.0000 C   0  0  0  0  0  0  0  0  0  0  0  0
    5.2087    0.9107    0.0000 C   0  0  0  0  0  0  0  0  0  0  0  0
    5.2087    0.0837    0.0000 N   0  0  0  0  0  0  0  0  0  0  0  0
    5.9249   -0.3298    0.0000 C   0  0  0  0  0  0  0  0  0  0  0  0
    5.9249   -1.1568    0.0000 C   0  0  0  0  0  0  0  0  0  0  0  0
    5.2087   -1.5703    0.0000 C   0  0  0  0  0  0  0  0  0  0  0  0
    4.4925   -1.1568    0.0000 C   0  0  0  0  0  0  0  0  0  0  0  0
    3.7763   -1.5703    0.0000 C   0  0  0  0  0  0  0  0  0  0  0  0
    3.6898   -2.3928    0.0000 N   0  0  0  0  0  0  0  0  0  0  0  0
    2.8809   -2.5647    0.0000 N   0  0  0  0  0  0  0  0  0  0  0  0
    2.4674   -1.8485    0.0000 C   0  0  0  0  0  0  0  0  0  0  0  0
    1.6449   -1.7621    0.0000 C   0  0  0  0  0  0  0  0  0  0  0  0
    1.1588   -2.4311    0.0000 C   0  0  0  0  0  0  0  0  0  0  0  0
    0.3364   -2.3447    0.0000 C   0  0  0  0  0  0  0  0  0  0  0  0
    0.0000   -1.5892    0.0000 C   0  0  0  0  0  0  0  0  0  0  0  0
    0.4861   -0.9201    0.0000 C   0  0  0  0  0  0  0  0  0  0  0  0
    1.3086   -1.0066    0.0000 C   0  0  0  0  0  0  0  0  0  0  0  0
    3.0208   -1.2339    0.0000 N   0  0  0  0  0  0  0  0  0  0  0  0
    4.4925   -0.3298    0.0000 C   0  0  0  0  0  0  0  0  0  0  0  0
  1  2  1  0  0  0
  2  3  1  0  0  0
  3  4  1  0  0  0
  4  5  1  0  0  0
  5 21  1  0  0  0
  5  6  1  0  0  0
  6  7  1  0  0  0
  7  8  1  0  0  0
  8  9  1  0  0  0
  9 10  1  0  0  0
 10 20  1  0  0  0
 10 11  2  0  0  0
 11 12  1  0  0  0
 12 13  1  0  0  0
 13 14  1  0  0  0
 14 19  1  0  0  0
 14 15  2  0  0  0
 15 16  1  0  0  0
 16 17  2  0  0  0
 17 18  1  0  0  0
 18 19  2  0  0  0
 13 20  2  0  0  0
  9 21  1  0  0  0
M  END
>  <Entry>
394

>  <title>
20-9138

>  <rigid docking scores>
-17.8259

>  <InChIKey>
OSGNMCCZISYXPF-UHFFFAOYSA-N

>  <Mcule>
MCULE-5475078419

$$$$
atoms 25 bonds 28
dotmatics
mol io
 25 28  0  0  0  0  0  0  0  0999 V2000
    3.5917   -1.4536    0.0000 O   0  0  0  0  0  0  0  0  0  0  0  0
    2.8785   -1.0350    0.0000 C   0  0  0  0  0  0  0  0  0  0  0  0
    2.1594   -1.4434    0.0000 C   0  0  0  0  0  0  0  0  0  0  0  0
    2.1534   -2.2704    0.0000 N   0  0  0  0  0  0  0  0  0  0  0  0
    2.8693   -2.6845    0.0000 C   0  0  0  0  0  0  0  0  0  0  0  0
    2.8693   -3.5127    0.0000 C   0  0  0  0  0  0  0  0  0  0  0  0
    2.1534   -3.9269    0.0000 O   0  0  0  0  0  0  0  0  0  0  0  0
    1.4317   -3.5127    0.0000 C   0  0  0  0  0  0  0  0  0  0  0  0
    0.7158   -3.9269    0.0000 C   0  0  0  0  0  0  0  0  0  0  0  0
    0.0000   -3.5127    0.0000 C   0  0  0  0  0  0  0  0  0  0  0  0
    0.0000   -2.6845    0.0000 C   0  0  0  0  0  0  0  0  0  0  0  0
    0.7158   -2.2704    0.0000 C   0  0  0  0  0  0  0  0  0  0  0  0
    1.4317   -2.6845    0.0000 C   0  0  0  0  0  0  0  0  0  0  0  0
    2.8844   -0.2080    0.0000 N   0  0  0  0  0  0  0  0  0  0  0  0
    2.1712    0.2106    0.0000 C   0  0  0  0  0  0  0  0  0  0  0  0
    2.1771    1.0376    0.0000 C   0  0  0  0  0  0  0  0  0  0  0  0
    2.8962    1.4459    0.0000 C   0  0  0  0  0  0  0  0  0  0  0  0
    2.9021    2.2729    0.0000 C   0  0  0  0  0  0  0  0  0  0  0  0
    2.1889    2.6915    0.0000 C   0  0  0  0  0  0  0  0  0  0  0  0
    2.1948    3.5185    0.0000 C   0  0  0  0  0  0  0  0  0  0  0  0
    2.9139    3.9269    0.0000 N   0  0  0  0  0  0  0  0  0  0  0  0
    3.6272    3.5083    0.0000 C   0  0  0  0  0  0  0  0  0  0  0  0
    3.6213    2.6813    0.0000 C   0  0  0  0  0  0  0  0  0  0  0  0
    3.6094    1.0273    0.0000 C   0  0  0  0  0  0  0  0  0  0  0  0
    3.6035    0.2003    0.0000 C   0  0  0  0  0  0  0  0  0  0  0  0
  1  2  2  0  0  0
  2  3  1  0  0  0
  3  4  1  0  0  0
  4 13  1  0  0  0
  4  5  1  0  0  0
  5  6  1  0  0  0
  6  7  1  0  0  0
  7  8  1  0  0  0
  8 13  1  0  0  0
  8  9  2  0  0  0
  9 10  1  0  0  0
 10 11  2  0  0  0
 11 12  1  0  0  0
 12 13  2  0  0  0
  2 14  1  0  0  0
 14 25  1  0  0  0
 14 15  1  0  0  0
 15 16  1  0  0  0
 16 17  1  0  0  0
 17 18  1  0  0  0
 18 23  1  0  0  0
 18 19  2  0  0  0
 19 20  1  0  0  0
 20 21  2  0  0  0
 21 22  1  0  0  0
 22 23  2  0  0  0
 17 24  1  0  0  0
 24 25  1  0  0  0
M  END
>  <Entry>
395

>  <title>
1-210

>  <rigid docking scores>
-16.6696

>  <InChIKey>
POJGRAJGPHZHRH-UHFFFAOYSA-N

$$$$
atoms 18 bonds 19
dotmatics
mol io
 18 19  0  0  0  0  0  0  0  0999 V2000
   -3.5439    2.8177    0.0000 C   0  0  0  0  0  0  0  0  0  0  0  0
   -3.1304    2.1015    0.0000 C   0  0  0  0  0  0  0  0  0  0  0  0
   -2.3034    2.1015    0.0000 C   0  0  0  0  0  0  0  0  0  0  0  0
   -1.8899    1.3853    0.0000 C   0  0  0  0  0  0  0  0  0  0  0  0
   -1.0629    1.3853    0.0000 C   0  0  0  0  0  0  0  0  0  0  0  0
   -0.6494    2.1015    0.0000 O   0  0  0  0  0  0  0  0  0  0  0  0
   -0.6494    0.6691    0.0000 N   0  0  0  0  0  0  0  0  0  0  0  0
    0.1776    0.6691    0.0000 C   0  0  0  0  0  0  0  0  0  0  0  0
    0.6637    1.3381    0.0000 N   0  0  0  0  0  0  0  0  0  0  0  0
    1.4503    1.0826    0.0000 C   0  0  0  0  0  0  0  0  0  0  0  0
    2.1193    1.5687    0.0000 C   0  0  0  0  0  0  0  0  0  0  0  0
    2.0329    2.3911    0.0000 C   0  0  0  0  0  0  0  0  0  0  0  0
    2.7019    2.8772    0.0000 C   0  0  0  0  0  0  0  0  0  0  0  0
    3.4574    2.5409    0.0000 N   0  0  0  0  0  0  0  0  0  0  0  0
    3.5439    1.7184    0.0000 C   0  0  0  0  0  0  0  0  0  0  0  0
    2.8748    1.2323    0.0000 C   0  0  0  0  0  0  0  0  0  0  0  0
    1.4503    0.2556    0.0000 C   0  0  0  0  0  0  0  0  0  0  0  0
    0.6637   -0.0000    0.0000 S   0  0  0  0  0  0  0  0  0  0  0  0
  1  2  1  0  0  0
  2  3  1  0  0  0
  3  4  1  0  0  0
  4  5  1  0  0  0
  5  6  2  0  0  0
  5  7  1  0  0  0
  7  8  1  0  0  0
  8 18  1  0  0  0
  8  9  2  0  0  0
  9 10  1  0  0  0
 10 11  1  0  0  0
 11 16  1  0  0  0
 11 12  2  0  0  0
 12 13  1  0  0  0
 13 14  2  0  0  0
 14 15  1  0  0  0
 15 16  2  0  0  0
 10 17  2  0  0  0
 17 18  1  0  0  0
M  END
>  <Entry>
396

>  <title>
3-127

>  <rigid docking scores>
-15.6949

>  <InChIKey>
NQDHDGDXIGCJGE-UHFFFAOYSA-N

>  <Pubchem>
110479439

$$$$
atoms 20 bonds 22
dotmatics
mol io
 20 22  0  0  0  0  0  0  0  0999 V2000
    3.5851   -2.5576    0.0000 O   0  0  0  0  0  0  0  0  0  0  0  0
    2.8693   -2.1435    0.0000 C   0  0  0  0  0  0  0  0  0  0  0  0
    2.8693   -1.3152    0.0000 C   0  0  0  0  0  0  0  0  0  0  0  0
    2.1534   -0.9011    0.0000 N   0  0  0  0  0  0  0  0  0  0  0  0
    2.1594   -0.0741    0.0000 C   0  0  0  0  0  0  0  0  0  0  0  0
    1.4461    0.3445    0.0000 O   0  0  0  0  0  0  0  0  0  0  0  0
    2.8785    0.3343    0.0000 C   0  0  0  0  0  0  0  0  0  0  0  0
    2.8844    1.1612    0.0000 C   0  0  0  0  0  0  0  0  0  0  0  0
    3.6035    1.5696    0.0000 C   0  0  0  0  0  0  0  0  0  0  0  0
    3.6959    2.3914    0.0000 C   0  0  0  0  0  0  0  0  0  0  0  0
    4.5060    2.5576    0.0000 C   0  0  0  0  0  0  0  0  0  0  0  0
    4.9144    1.8385    0.0000 C   0  0  0  0  0  0  0  0  0  0  0  0
    4.3566    1.2278    0.0000 O   0  0  0  0  0  0  0  0  0  0  0  0
    1.4317   -1.3152    0.0000 C   0  0  0  0  0  0  0  0  0  0  0  0
    0.7158   -0.9011    0.0000 C   0  0  0  0  0  0  0  0  0  0  0  0
    0.0000   -1.3152    0.0000 C   0  0  0  0  0  0  0  0  0  0  0  0
    0.0000   -2.1435    0.0000 C   0  0  0  0  0  0  0  0  0  0  0  0
    0.7158   -2.5576    0.0000 C   0  0  0  0  0  0  0  0  0  0  0  0
    1.4317   -2.1435    0.0000 C   0  0  0  0  0  0  0  0  0  0  0  0
    2.1534   -2.5576    0.0000 N   0  0  0  0  0  0  0  0  0  0  0  0
  1  2  2  0  0  0
  2 20  1  0  0  0
  2  3  1  0  0  0
  3  4  1  0  0  0
  4  5  1  0  0  0
  5  6  2  0  0  0
  5  7  1  0  0  0
  7  8  1  0  0  0
  8  9  1  0  0  0
  9 13  1  0  0  0
  9 10  2  0  0  0
 10 11  1  0  0  0
 11 12  2  0  0  0
 12 13  1  0  0  0
  4 14  1  0  0  0
 14 19  1  0  0  0
 14 15  2  0  0  0
 15 16  1  0  0  0
 16 17  2  0  0  0
 17 18  1  0  0  0
 18 19  2  0  0  0
 19 20  1  0  0  0
M  END
>  <Entry>
397

>  <title>
3-195

>  <rigid docking scores>
-16.408

>  <InChIKey>
WTQFLUQWVYYJGS-UHFFFAOYSA-N

>  <ZINC>
ZINC000048345101

>  <eMolecules>
30733733

>  <Pubchem>
47013744

>  <Mcule>
MCULE-9373879037

>  <MolPort>
MolPort-009-141-125

$$$$
atoms 20 bonds 22
dotmatics
mol io
 20 22  0  0  0  0  0  0  0  0999 V2000
    4.4925    2.3580    0.0000 C   0  0  0  0  0  0  0  0  0  0  0  0
    4.4925    1.5310    0.0000 N   0  0  0  0  0  0  0  0  0  0  0  0
    5.2087    1.1175    0.0000 C   0  0  0  0  0  0  0  0  0  0  0  0
    5.2087    0.2905    0.0000 C   0  0  0  0  0  0  0  0  0  0  0  0
    4.4925   -0.1230    0.0000 N   0  0  0  0  0  0  0  0  0  0  0  0
    4.4925   -0.9500    0.0000 C   0  0  0  0  0  0  0  0  0  0  0  0
    3.7763   -1.3635    0.0000 C   0  0  0  0  0  0  0  0  0  0  0  0
    3.6898   -2.1860    0.0000 C   0  0  0  0  0  0  0  0  0  0  0  0
    2.8809   -2.3580    0.0000 O   0  0  0  0  0  0  0  0  0  0  0  0
    2.4674   -1.6418    0.0000 C   0  0  0  0  0  0  0  0  0  0  0  0
    1.6449   -1.5553    0.0000 C   0  0  0  0  0  0  0  0  0  0  0  0
    1.1588   -2.2244    0.0000 C   0  0  0  0  0  0  0  0  0  0  0  0
    0.3364   -2.1379    0.0000 C   0  0  0  0  0  0  0  0  0  0  0  0
    0.0000   -1.3824    0.0000 C   0  0  0  0  0  0  0  0  0  0  0  0
    0.4861   -0.7134    0.0000 C   0  0  0  0  0  0  0  0  0  0  0  0
    0.1497    0.0421    0.0000 O   0  0  0  0  0  0  0  0  0  0  0  0
    1.3086   -0.7998    0.0000 C   0  0  0  0  0  0  0  0  0  0  0  0
    3.0208   -1.0272    0.0000 N   0  0  0  0  0  0  0  0  0  0  0  0
    3.7763    0.2905    0.0000 C   0  0  0  0  0  0  0  0  0  0  0  0
    3.7763    1.1175    0.0000 C   0  0  0  0  0  0  0  0  0  0  0  0
  1  2  1  0  0  0
  2 20  1  0  0  0
  2  3  1  0  0  0
  3  4  1  0  0  0
  4  5  1  0  0  0
  5  6  1  0  0  0
  6  7  1  0  0  0
  7 18  1  0  0  0
  7  8  2  0  0  0
  8  9  1  0  0  0
  9 10  1  0  0  0
 10 11  1  0  0  0
 11 17  1  0  0  0
 11 12  2  0  0  0
 12 13  1  0  0  0
 13 14  2  0  0  0
 14 15  1  0  0  0
 15 16  1  0  0  0
 15 17  2  0  0  0
 10 18  2  0  0  0
  5 19  1  0  0  0
 19 20  1  0  0  0
M  END
>  <Entry>
398

>  <title>
3-212

>  <rigid docking scores>
-17.0437

>  <InChIKey>
WVAFXDWRZXZIFV-UHFFFAOYSA-N

$$$$
atoms 21 bonds 23
dotmatics
mol io
 21 23  0  0  0  0  0  0  0  0999 V2000
   -3.9574    2.9244    0.0000 C   0  0  0  0  0  0  0  0  0  0  0  0
   -3.1304    2.9244    0.0000 C   0  0  0  0  0  0  0  0  0  0  0  0
   -2.7169    3.6406    0.0000 C   0  0  0  0  0  0  0  0  0  0  0  0
   -1.8899    3.6406    0.0000 C   0  0  0  0  0  0  0  0  0  0  0  0
   -1.4764    2.9244    0.0000 N   0  0  0  0  0  0  0  0  0  0  0  0
   -0.6494    2.9244    0.0000 C   0  0  0  0  0  0  0  0  0  0  0  0
   -0.2359    3.6406    0.0000 O   0  0  0  0  0  0  0  0  0  0  0  0
   -0.2359    2.2082    0.0000 C   0  0  0  0  0  0  0  0  0  0  0  0
    0.5911    2.2082    0.0000 N   0  0  0  0  0  0  0  0  0  0  0  0
    1.0772    2.8772    0.0000 N   0  0  0  0  0  0  0  0  0  0  0  0
    1.8638    2.6217    0.0000 N   0  0  0  0  0  0  0  0  0  0  0  0
    1.8638    1.7947    0.0000 C   0  0  0  0  0  0  0  0  0  0  0  0
    2.5328    1.3086    0.0000 C   0  0  0  0  0  0  0  0  0  0  0  0
    3.2883    1.6449    0.0000 C   0  0  0  0  0  0  0  0  0  0  0  0
    3.9574    1.1588    0.0000 C   0  0  0  0  0  0  0  0  0  0  0  0
    3.8709    0.3364    0.0000 C   0  0  0  0  0  0  0  0  0  0  0  0
    3.1154   -0.0000    0.0000 C   0  0  0  0  0  0  0  0  0  0  0  0
    2.4464    0.4861    0.0000 C   0  0  0  0  0  0  0  0  0  0  0  0
    1.0772    1.5391    0.0000 N   0  0  0  0  0  0  0  0  0  0  0  0
   -1.8899    2.2082    0.0000 C   0  0  0  0  0  0  0  0  0  0  0  0
   -2.7169    2.2082    0.0000 C   0  0  0  0  0  0  0  0  0  0  0  0
  1  2  1  0  0  0
  2 21  1  0  0  0
  2  3  1  0  0  0
  3  4  1  0  0  0
  4  5  1  0  0  0
  5  6  1  0  0  0
  6  7  2  0  0  0
  6  8  1  0  0  0
  8  9  1  0  0  0
  9 19  1  0  0  0
  9 10  1  0  0  0
 10 11  2  0  0  0
 11 12  1  0  0  0
 12 13  1  0  0  0
 13 18  1  0  0  0
 13 14  2  0  0  0
 14 15  1  0  0  0
 15 16  2  0  0  0
 16 17  1  0  0  0
 17 18  2  0  0  0
 12 19  2  0  0  0
  5 20  1  0  0  0
 20 21  1  0  0  0
M  END
>  <Entry>
399

>  <title>
3-444

>  <rigid docking scores>
-15.9426

>  <InChIKey>
XREHKQUBVIDGBG-UHFFFAOYSA-N

>  <ChEMBL>
CHEMBL1603807

>  <ZINC>
ZINC000000472575

>  <Pubchem>
895545

>  <Mcule>
MCULE-7231506539

>  <MolPort>
MolPort-002-089-888

$$$$
atoms 23 bonds 25
dotmatics
mol io
 23 25  0  0  0  0  0  0  0  0999 V2000
    2.9014    0.0000    0.0000 O   0  0  0  0  0  0  0  0  0  0  0  0
    3.7284    0.0007    0.0000 C   0  0  0  0  0  0  0  0  0  0  0  0
    4.1412    0.7173    0.0000 C   0  0  0  0  0  0  0  0  0  0  0  0
    3.7271    1.4331    0.0000 N   0  0  0  0  0  0  0  0  0  0  0  0
    2.8989    1.4331    0.0000 N   0  0  0  0  0  0  0  0  0  0  0  0
    2.4847    2.1490    0.0000 C   0  0  0  0  0  0  0  0  0  0  0  0
    1.6565    2.1490    0.0000 C   0  0  0  0  0  0  0  0  0  0  0  0
    1.2424    1.4331    0.0000 C   0  0  0  0  0  0  0  0  0  0  0  0
    0.4141    1.4331    0.0000 C   0  0  0  0  0  0  0  0  0  0  0  0
    0.0000    2.1490    0.0000 C   0  0  0  0  0  0  0  0  0  0  0  0
    0.4141    2.8648    0.0000 C   0  0  0  0  0  0  0  0  0  0  0  0
    1.2424    2.8648    0.0000 C   0  0  0  0  0  0  0  0  0  0  0  0
    2.8989    2.8648    0.0000 C   0  0  0  0  0  0  0  0  0  0  0  0
    3.7271    2.8648    0.0000 C   0  0  0  0  0  0  0  0  0  0  0  0
    4.1412    2.1490    0.0000 C   0  0  0  0  0  0  0  0  0  0  0  0
    4.9682    2.1490    0.0000 O   0  0  0  0  0  0  0  0  0  0  0  0
    4.1425   -0.7151    0.0000 N   0  0  0  0  0  0  0  0  0  0  0  0
    3.7296   -1.4317    0.0000 C   0  0  0  0  0  0  0  0  0  0  0  0
    4.1437   -2.1475    0.0000 C   0  0  0  0  0  0  0  0  0  0  0  0
    3.7309   -2.8641    0.0000 C   0  0  0  0  0  0  0  0  0  0  0  0
    2.9039   -2.8648    0.0000 C   0  0  0  0  0  0  0  0  0  0  0  0
    2.4897   -2.1490    0.0000 C   0  0  0  0  0  0  0  0  0  0  0  0
    2.9026   -1.4324    0.0000 C   0  0  0  0  0  0  0  0  0  0  0  0
  1  2  2  0  0  0
  2  3  1  0  0  0
  3  4  1  0  0  0
  4 15  1  0  0  0
  4  5  1  0  0  0
  5  6  2  0  0  0
  6  7  1  0  0  0
  7 12  1  0  0  0
  7  8  2  0  0  0
  8  9  1  0  0  0
  9 10  2  0  0  0
 10 11  1  0  0  0
 11 12  2  0  0  0
  6 13  1  0  0  0
 13 14  2  0  0  0
 14 15  1  0  0  0
 15 16  2  0  0  0
  2 17  1  0  0  0
 17 18  1  0  0  0
 18 23  1  0  0  0
 18 19  1  0  0  0
 19 20  1  0  0  0
 20 21  1  0  0  0
 21 22  1  0  0  0
 22 23  1  0  0  0
M  END
>  <Entry>
400

>  <title>
3-667

>  <rigid docking scores>
-16.3645

>  <InChIKey>
NVUPFWFNAHRTRA-UHFFFAOYSA-N

>  <ZINC>
ZINC000005388170

>  <eMolecules>
30309917

>  <Pubchem>
7659621

>  <Mcule>
MCULE-7932802098

>  <MolPort>
MolPort-003-571-589

$$$$
atoms 22 bonds 24
dotmatics
mol io
 22 24  0  0  0  0  0  0  0  0999 V2000
    7.8627   -1.7901    0.0000 C   0  0  0  0  0  0  0  0  0  0  0  0
    7.4486   -1.0743    0.0000 C   0  0  0  0  0  0  0  0  0  0  0  0
    6.6204   -1.0743    0.0000 C   0  0  0  0  0  0  0  0  0  0  0  0
    6.2062   -0.3585    0.0000 C   0  0  0  0  0  0  0  0  0  0  0  0
    5.3780   -0.3585    0.0000 N   0  0  0  0  0  0  0  0  0  0  0  0
    4.9639   -1.0743    0.0000 C   0  0  0  0  0  0  0  0  0  0  0  0
    4.1356   -1.0743    0.0000 C   0  0  0  0  0  0  0  0  0  0  0  0
    3.7215   -0.3585    0.0000 C   0  0  0  0  0  0  0  0  0  0  0  0
    2.8945   -0.3585    0.0000 N   0  0  0  0  0  0  0  0  0  0  0  0
    2.4810    0.3577    0.0000 C   0  0  0  0  0  0  0  0  0  0  0  0
    1.6540    0.3577    0.0000 C   0  0  0  0  0  0  0  0  0  0  0  0
    1.2405   -0.3585    0.0000 C   0  0  0  0  0  0  0  0  0  0  0  0
    0.4135   -0.3585    0.0000 C   0  0  0  0  0  0  0  0  0  0  0  0
    0.0000    0.3577    0.0000 C   0  0  0  0  0  0  0  0  0  0  0  0
    0.4135    1.0739    0.0000 C   0  0  0  0  0  0  0  0  0  0  0  0
    0.0000    1.7901    0.0000 O   0  0  0  0  0  0  0  0  0  0  0  0
    1.2405    1.0739    0.0000 C   0  0  0  0  0  0  0  0  0  0  0  0
    4.1356    0.3574    0.0000 C   0  0  0  0  0  0  0  0  0  0  0  0
    4.9639    0.3574    0.0000 C   0  0  0  0  0  0  0  0  0  0  0  0
    6.6204    0.3574    0.0000 N   0  0  0  0  0  0  0  0  0  0  0  0
    7.4486    0.3574    0.0000 C   0  0  0  0  0  0  0  0  0  0  0  0
    7.8627   -0.3585    0.0000 N   0  0  0  0  0  0  0  0  0  0  0  0
  1  2  1  0  0  0
  2 22  1  0  0  0
  2  3  2  0  0  0
  3  4  1  0  0  0
  4  5  1  0  0  0
  5 19  1  0  0  0
  5  6  1  0  0  0
  6  7  1  0  0  0
  7  8  1  0  0  0
  8  9  1  0  0  0
  9 10  1  0  0  0
 10 11  1  0  0  0
 11 17  1  0  0  0
 11 12  2  0  0  0
 12 13  1  0  0  0
 13 14  2  0  0  0
 14 15  1  0  0  0
 15 16  1  0  0  0
 15 17  2  0  0  0
  8 18  1  0  0  0
 18 19  1  0  0  0
  4 20  2  0  0  0
 20 21  1  0  0  0
 21 22  2  0  0  0
M  END
>  <Entry>
401

>  <title>
3-669

>  <rigid docking scores>
-18.0841

>  <InChIKey>
HQMRAPNSLNSWKA-UHFFFAOYSA-N

$$$$
atoms 24 bonds 27
dotmatics
mol io
 24 27  0  0  0  0  0  0  0  0999 V2000
    4.2965    0.5381    0.0000 O   0  0  0  0  0  0  0  0  0  0  0  0
    3.5803    0.9516    0.0000 C   0  0  0  0  0  0  0  0  0  0  0  0
    3.5803    1.7786    0.0000 C   0  0  0  0  0  0  0  0  0  0  0  0
    4.2965    2.1921    0.0000 N   0  0  0  0  0  0  0  0  0  0  0  0
    4.3829    3.0146    0.0000 C   0  0  0  0  0  0  0  0  0  0  0  0
    5.1919    3.1865    0.0000 C   0  0  0  0  0  0  0  0  0  0  0  0
    5.6054    2.4703    0.0000 C   0  0  0  0  0  0  0  0  0  0  0  0
    5.0520    1.8557    0.0000 C   0  0  0  0  0  0  0  0  0  0  0  0
    2.8641    0.5381    0.0000 N   0  0  0  0  0  0  0  0  0  0  0  0
    2.8641   -0.2889    0.0000 C   0  0  0  0  0  0  0  0  0  0  0  0
    2.1482   -0.7030    0.0000 C   0  0  0  0  0  0  0  0  0  0  0  0
    2.1482   -1.5313    0.0000 C   0  0  0  0  0  0  0  0  0  0  0  0
    1.4324   -1.9454    0.0000 C   0  0  0  0  0  0  0  0  0  0  0  0
    1.4331   -2.7724    0.0000 C   0  0  0  0  0  0  0  0  0  0  0  0
    0.7173   -3.1865    0.0000 C   0  0  0  0  0  0  0  0  0  0  0  0
    0.0007   -2.7736    0.0000 N   0  0  0  0  0  0  0  0  0  0  0  0
    0.0000   -1.9466    0.0000 C   0  0  0  0  0  0  0  0  0  0  0  0
    0.7158   -1.5325    0.0000 C   0  0  0  0  0  0  0  0  0  0  0  0
    2.8641   -1.9454    0.0000 C   0  0  0  0  0  0  0  0  0  0  0  0
    3.5799   -1.5313    0.0000 N   0  0  0  0  0  0  0  0  0  0  0  0
    4.3668   -1.7857    0.0000 C   0  0  0  0  0  0  0  0  0  0  0  0
    4.8578   -1.1171    0.0000 C   0  0  0  0  0  0  0  0  0  0  0  0
    4.3668   -0.4486    0.0000 N   0  0  0  0  0  0  0  0  0  0  0  0
    3.5799   -0.7030    0.0000 C   0  0  0  0  0  0  0  0  0  0  0  0
  1  2  2  0  0  0
  2  3  1  0  0  0
  3  4  1  0  0  0
  4  8  1  0  0  0
  4  5  1  0  0  0
  5  6  1  0  0  0
  6  7  1  0  0  0
  7  8  1  0  0  0
  2  9  1  0  0  0
  9 10  1  0  0  0
 10 24  1  0  0  0
 10 11  2  0  0  0
 11 12  1  0  0  0
 12 13  1  0  0  0
 13 18  1  0  0  0
 13 14  2  0  0  0
 14 15  1  0  0  0
 15 16  2  0  0  0
 16 17  1  0  0  0
 17 18  2  0  0  0
 12 19  2  0  0  0
 19 20  1  0  0  0
 20 24  1  0  0  0
 20 21  1  0  0  0
 21 22  2  0  0  0
 22 23  1  0  0  0
 23 24  2  0  0  0
M  END
>  <Entry>
402

>  <title>
3-725

>  <rigid docking scores>
-20.8177

>  <InChIKey>
AKWXWYWMAIMQOL-UHFFFAOYSA-N

$$$$
atoms 24 bonds 27
dotmatics
mol io
 24 27  0  0  0  0  0  0  0  0999 V2000
    7.1665    1.0347    0.0000 C   0  0  0  0  0  0  0  0  0  0  0  0
    7.1672    0.2077    0.0000 C   0  0  0  0  0  0  0  0  0  0  0  0
    7.8838   -0.2052    0.0000 C   0  0  0  0  0  0  0  0  0  0  0  0
    7.8845   -1.0322    0.0000 C   0  0  0  0  0  0  0  0  0  0  0  0
    7.1687   -1.4463    0.0000 C   0  0  0  0  0  0  0  0  0  0  0  0
    6.4521   -1.0334    0.0000 C   0  0  0  0  0  0  0  0  0  0  0  0
    6.4514   -0.2064    0.0000 C   0  0  0  0  0  0  0  0  0  0  0  0
    5.7348    0.2064    0.0000 N   0  0  0  0  0  0  0  0  0  0  0  0
    5.0190   -0.2077    0.0000 C   0  0  0  0  0  0  0  0  0  0  0  0
    4.3024    0.2052    0.0000 C   0  0  0  0  0  0  0  0  0  0  0  0
    4.3017    1.0322    0.0000 N   0  0  0  0  0  0  0  0  0  0  0  0
    3.5851    1.4451    0.0000 C   0  0  0  0  0  0  0  0  0  0  0  0
    2.8693    1.0309    0.0000 C   0  0  0  0  0  0  0  0  0  0  0  0
    2.8693    0.2027    0.0000 C   0  0  0  0  0  0  0  0  0  0  0  0
    2.1534   -0.2114    0.0000 O   0  0  0  0  0  0  0  0  0  0  0  0
    1.4317    0.2027    0.0000 C   0  0  0  0  0  0  0  0  0  0  0  0
    0.7158   -0.2114    0.0000 C   0  0  0  0  0  0  0  0  0  0  0  0
    0.0000    0.2027    0.0000 C   0  0  0  0  0  0  0  0  0  0  0  0
    0.0000    1.0309    0.0000 C   0  0  0  0  0  0  0  0  0  0  0  0
    0.7158    1.4451    0.0000 C   0  0  0  0  0  0  0  0  0  0  0  0
    1.4317    1.0309    0.0000 C   0  0  0  0  0  0  0  0  0  0  0  0
    2.1534    1.4451    0.0000 O   0  0  0  0  0  0  0  0  0  0  0  0
    5.0175    1.4463    0.0000 C   0  0  0  0  0  0  0  0  0  0  0  0
    5.7341    1.0334    0.0000 C   0  0  0  0  0  0  0  0  0  0  0  0
  1  2  1  0  0  0
  2  7  1  0  0  0
  2  3  2  0  0  0
  3  4  1  0  0  0
  4  5  2  0  0  0
  5  6  1  0  0  0
  6  7  2  0  0  0
  7  8  1  0  0  0
  8 24  1  0  0  0
  8  9  1  0  0  0
  9 10  1  0  0  0
 10 11  1  0  0  0
 11 12  1  0  0  0
 12 13  1  0  0  0
 13 22  1  0  0  0
 13 14  1  0  0  0
 14 15  1  0  0  0
 15 16  1  0  0  0
 16 21  1  0  0  0
 16 17  2  0  0  0
 17 18  1  0  0  0
 18 19  2  0  0  0
 19 20  1  0  0  0
 20 21  2  0  0  0
 21 22  1  0  0  0
 11 23  1  0  0  0
 23 24  1  0  0  0
M  END
>  <Entry>
403

>  <title>
3-765

>  <rigid docking scores>
-15.8981

>  <InChIKey>
SMGPQHRVOBQPQA-UHFFFAOYSA-N

>  <SureChEMBL Patents>
SCHEMBL2550529

>  <Pubchem>
67449154

$$$$
atoms 21 bonds 22
dotmatics
mol io
 21 22  0  0  0  0  0  0  0  0999 V2000
    2.4810    3.2224    0.0000 C   0  0  0  0  0  0  0  0  0  0  0  0
    2.8951    2.5065    0.0000 C   0  0  0  0  0  0  0  0  0  0  0  0
    3.7221    2.5073    0.0000 O   0  0  0  0  0  0  0  0  0  0  0  0
    2.4822    1.7900    0.0000 N   0  0  0  0  0  0  0  0  0  0  0  0
    2.8964    1.0741    0.0000 C   0  0  0  0  0  0  0  0  0  0  0  0
    2.4835    0.3576    0.0000 C   0  0  0  0  0  0  0  0  0  0  0  0
    2.8976   -0.3583    0.0000 C   0  0  0  0  0  0  0  0  0  0  0  0
    3.7246   -0.3576    0.0000 O   0  0  0  0  0  0  0  0  0  0  0  0
    2.4847   -1.0748    0.0000 N   0  0  0  0  0  0  0  0  0  0  0  0
    2.8989   -1.7907    0.0000 C   0  0  0  0  0  0  0  0  0  0  0  0
    3.7271   -1.7907    0.0000 C   0  0  0  0  0  0  0  0  0  0  0  0
    4.1412   -2.5065    0.0000 C   0  0  0  0  0  0  0  0  0  0  0  0
    3.7271   -3.2224    0.0000 C   0  0  0  0  0  0  0  0  0  0  0  0
    2.8989   -3.2224    0.0000 N   0  0  0  0  0  0  0  0  0  0  0  0
    2.4847   -2.5065    0.0000 C   0  0  0  0  0  0  0  0  0  0  0  0
    1.6565   -2.5065    0.0000 C   0  0  0  0  0  0  0  0  0  0  0  0
    1.2424   -3.2224    0.0000 C   0  0  0  0  0  0  0  0  0  0  0  0
    0.4141   -3.2224    0.0000 C   0  0  0  0  0  0  0  0  0  0  0  0
    0.0000   -2.5065    0.0000 C   0  0  0  0  0  0  0  0  0  0  0  0
    0.4141   -1.7907    0.0000 N   0  0  0  0  0  0  0  0  0  0  0  0
    1.2424   -1.7907    0.0000 C   0  0  0  0  0  0  0  0  0  0  0  0
  1  2  1  0  0  0
  2  3  2  0  0  0
  2  4  1  0  0  0
  4  5  1  0  0  0
  5  6  1  0  0  0
  6  7  1  0  0  0
  7  8  2  0  0  0
  7  9  1  0  0  0
  9 10  1  0  0  0
 10 15  1  0  0  0
 10 11  2  0  0  0
 11 12  1  0  0  0
 12 13  2  0  0  0
 13 14  1  0  0  0
 14 15  2  0  0  0
 15 16  1  0  0  0
 16 21  1  0  0  0
 16 17  2  0  0  0
 17 18  1  0  0  0
 18 19  2  0  0  0
 19 20  1  0  0  0
 20 21  2  0  0  0
M  END
>  <Entry>
404

>  <title>
3-1320

>  <rigid docking scores>
-19.5324

>  <InChIKey>
YFANMPJXLNCXCO-UHFFFAOYSA-N

$$$$
atoms 23 bonds 25
dotmatics
mol io
 23 25  0  0  0  0  0  0  0  0999 V2000
   -4.1115    3.8230    0.0000 C   0  0  0  0  0  0  0  0  0  0  0  0
   -3.2845    3.8230    0.0000 N   0  0  0  0  0  0  0  0  0  0  0  0
   -2.8710    4.5392    0.0000 C   0  0  0  0  0  0  0  0  0  0  0  0
   -2.8710    3.1068    0.0000 C   0  0  0  0  0  0  0  0  0  0  0  0
   -3.2845    2.3906    0.0000 O   0  0  0  0  0  0  0  0  0  0  0  0
   -2.0440    3.1068    0.0000 C   0  0  0  0  0  0  0  0  0  0  0  0
   -1.6305    3.8230    0.0000 C   0  0  0  0  0  0  0  0  0  0  0  0
   -0.8035    3.8230    0.0000 C   0  0  0  0  0  0  0  0  0  0  0  0
   -0.3900    3.1068    0.0000 N   0  0  0  0  0  0  0  0  0  0  0  0
    0.4370    3.1068    0.0000 C   0  0  0  0  0  0  0  0  0  0  0  0
    0.8505    2.3906    0.0000 C   0  0  0  0  0  0  0  0  0  0  0  0
    1.6730    2.3041    0.0000 C   0  0  0  0  0  0  0  0  0  0  0  0
    1.8450    1.4952    0.0000 C   0  0  0  0  0  0  0  0  0  0  0  0
    2.6005    1.1588    0.0000 C   0  0  0  0  0  0  0  0  0  0  0  0
    3.2695    1.6449    0.0000 C   0  0  0  0  0  0  0  0  0  0  0  0
    4.0250    1.3086    0.0000 C   0  0  0  0  0  0  0  0  0  0  0  0
    4.1115    0.4861    0.0000 C   0  0  0  0  0  0  0  0  0  0  0  0
    3.4424   -0.0000    0.0000 N   0  0  0  0  0  0  0  0  0  0  0  0
    2.6869    0.3364    0.0000 C   0  0  0  0  0  0  0  0  0  0  0  0
    1.1288    1.0817    0.0000 N   0  0  0  0  0  0  0  0  0  0  0  0
    0.5142    1.6351    0.0000 O   0  0  0  0  0  0  0  0  0  0  0  0
   -0.8035    2.3906    0.0000 C   0  0  0  0  0  0  0  0  0  0  0  0
   -1.6305    2.3906    0.0000 C   0  0  0  0  0  0  0  0  0  0  0  0
  1  2  1  0  0  0
  2  3  1  0  0  0
  2  4  1  0  0  0
  4  5  2  0  0  0
  4  6  1  0  0  0
  6 23  1  0  0  0
  6  7  1  0  0  0
  7  8  1  0  0  0
  8  9  1  0  0  0
  9 10  1  0  0  0
 10 11  1  0  0  0
 11 21  1  0  0  0
 11 12  2  0  0  0
 12 13  1  0  0  0
 13 14  1  0  0  0
 14 19  1  0  0  0
 14 15  2  0  0  0
 15 16  1  0  0  0
 16 17  2  0  0  0
 17 18  1  0  0  0
 18 19  2  0  0  0
 13 20  2  0  0  0
 20 21  1  0  0  0
  9 22  1  0  0  0
 22 23  1  0  0  0
M  END
>  <Entry>
405

>  <title>
3-1338

>  <rigid docking scores>
-16.1911

>  <InChIKey>
FSBGNZDPIVHPRV-UHFFFAOYSA-N

$$$$
atoms 21 bonds 23
dotmatics
mol io
 21 23  0  0  0  0  0  0  0  0999 V2000
    5.7610    2.6710    0.0000 C   0  0  0  0  0  0  0  0  0  0  0  0
    5.0418    2.2627    0.0000 N   0  0  0  0  0  0  0  0  0  0  0  0
    5.0359    1.4357    0.0000 C   0  0  0  0  0  0  0  0  0  0  0  0
    4.3168    1.0273    0.0000 C   0  0  0  0  0  0  0  0  0  0  0  0
    3.6035    1.4459    0.0000 N   0  0  0  0  0  0  0  0  0  0  0  0
    2.8844    1.0376    0.0000 C   0  0  0  0  0  0  0  0  0  0  0  0
    2.1712    1.4562    0.0000 O   0  0  0  0  0  0  0  0  0  0  0  0
    2.8785    0.2106    0.0000 C   0  0  0  0  0  0  0  0  0  0  0  0
    2.1594   -0.1978    0.0000 N   0  0  0  0  0  0  0  0  0  0  0  0
    2.1534   -1.0248    0.0000 C   0  0  0  0  0  0  0  0  0  0  0  0
    2.8693   -1.4389    0.0000 C   0  0  0  0  0  0  0  0  0  0  0  0
    2.8693   -2.2672    0.0000 C   0  0  0  0  0  0  0  0  0  0  0  0
    2.1534   -2.6813    0.0000 O   0  0  0  0  0  0  0  0  0  0  0  0
    1.4317   -2.2672    0.0000 C   0  0  0  0  0  0  0  0  0  0  0  0
    0.7158   -2.6813    0.0000 C   0  0  0  0  0  0  0  0  0  0  0  0
    0.0000   -2.2672    0.0000 C   0  0  0  0  0  0  0  0  0  0  0  0
    0.0000   -1.4389    0.0000 C   0  0  0  0  0  0  0  0  0  0  0  0
    0.7158   -1.0248    0.0000 C   0  0  0  0  0  0  0  0  0  0  0  0
    1.4317   -1.4389    0.0000 C   0  0  0  0  0  0  0  0  0  0  0  0
    3.6094    2.2729    0.0000 C   0  0  0  0  0  0  0  0  0  0  0  0
    4.3286    2.6813    0.0000 C   0  0  0  0  0  0  0  0  0  0  0  0
  1  2  1  0  0  0
  2 21  1  0  0  0
  2  3  1  0  0  0
  3  4  1  0  0  0
  4  5  1  0  0  0
  5  6  1  0  0  0
  6  7  2  0  0  0
  6  8  1  0  0  0
  8  9  1  0  0  0
  9 10  1  0  0  0
 10 19  1  0  0  0
 10 11  1  0  0  0
 11 12  1  0  0  0
 12 13  1  0  0  0
 13 14  1  0  0  0
 14 19  1  0  0  0
 14 15  2  0  0  0
 15 16  1  0  0  0
 16 17  2  0  0  0
 17 18  1  0  0  0
 18 19  2  0  0  0
  5 20  1  0  0  0
 20 21  1  0  0  0
M  END
>  <Entry>
406

>  <title>
3-1369

>  <rigid docking scores>
-20.2298

>  <InChIKey>
FPBVLIZEXDEJSP-UHFFFAOYSA-N

>  <Pubchem>
60694113

$$$$
atoms 24 bonds 27
dotmatics
mol io
 24 27  0  0  0  0  0  0  0  0999 V2000
    0.7173    2.5111    0.0000 N   0  0  0  0  0  0  0  0  0  0  0  0
    0.7166    1.6841    0.0000 C   0  0  0  0  0  0  0  0  0  0  0  0
    0.0000    1.2713    0.0000 O   0  0  0  0  0  0  0  0  0  0  0  0
    1.4324    1.2700    0.0000 C   0  0  0  0  0  0  0  0  0  0  0  0
    1.4324    0.4418    0.0000 C   0  0  0  0  0  0  0  0  0  0  0  0
    2.1482    0.0276    0.0000 C   0  0  0  0  0  0  0  0  0  0  0  0
    2.8641    0.4418    0.0000 C   0  0  0  0  0  0  0  0  0  0  0  0
    3.6509    0.1874    0.0000 N   0  0  0  0  0  0  0  0  0  0  0  0
    4.1420    0.8559    0.0000 C   0  0  0  0  0  0  0  0  0  0  0  0
    4.9690    0.8559    0.0000 C   0  0  0  0  0  0  0  0  0  0  0  0
    5.4551    1.5249    0.0000 C   0  0  0  0  0  0  0  0  0  0  0  0
    6.2416    1.2694    0.0000 C   0  0  0  0  0  0  0  0  0  0  0  0
    6.2416    0.4424    0.0000 N   0  0  0  0  0  0  0  0  0  0  0  0
    6.9106   -0.0437    0.0000 C   0  0  0  0  0  0  0  0  0  0  0  0
    6.8242   -0.8662    0.0000 C   0  0  0  0  0  0  0  0  0  0  0  0
    7.4933   -1.3523    0.0000 C   0  0  0  0  0  0  0  0  0  0  0  0
    7.4068   -2.1748    0.0000 C   0  0  0  0  0  0  0  0  0  0  0  0
    6.6513   -2.5111    0.0000 C   0  0  0  0  0  0  0  0  0  0  0  0
    5.9822   -2.0250    0.0000 C   0  0  0  0  0  0  0  0  0  0  0  0
    6.0687   -1.2026    0.0000 C   0  0  0  0  0  0  0  0  0  0  0  0
    5.4551    0.1868    0.0000 C   0  0  0  0  0  0  0  0  0  0  0  0
    3.6509    1.5244    0.0000 O   0  0  0  0  0  0  0  0  0  0  0  0
    2.8641    1.2700    0.0000 C   0  0  0  0  0  0  0  0  0  0  0  0
    2.1482    1.6841    0.0000 C   0  0  0  0  0  0  0  0  0  0  0  0
  1  2  1  0  0  0
  2  3  2  0  0  0
  2  4  1  0  0  0
  4 24  1  0  0  0
  4  5  2  0  0  0
  5  6  1  0  0  0
  6  7  2  0  0  0
  7 23  1  0  0  0
  7  8  1  0  0  0
  8  9  2  0  0  0
  9 10  1  0  0  0
 10 21  1  0  0  0
 10 11  1  0  0  0
 11 12  1  0  0  0
 12 13  1  0  0  0
 13 14  1  0  0  0
 14 15  1  0  0  0
 15 20  1  0  0  0
 15 16  2  0  0  0
 16 17  1  0  0  0
 17 18  2  0  0  0
 18 19  1  0  0  0
 19 20  2  0  0  0
 13 21  1  0  0  0
  9 22  1  0  0  0
 22 23  1  0  0  0
 23 24  2  0  0  0
M  END
>  <Entry>
407

>  <title>
3-1812

>  <rigid docking scores>
-16.0765

>  <InChIKey>
ZIJMPKZKKNNSRE-UHFFFAOYSA-N

$$$$
atoms 21 bonds 23
dotmatics
mol io
 21 23  0  0  0  0  0  0  0  0999 V2000
   -0.4370    0.7162    0.0000 O   0  0  0  0  0  0  0  0  0  0  0  0
   -0.0235    1.4324    0.0000 C   0  0  0  0  0  0  0  0  0  0  0  0
    0.8035    1.4324    0.0000 N   0  0  0  0  0  0  0  0  0  0  0  0
    1.2170    0.7162    0.0000 C   0  0  0  0  0  0  0  0  0  0  0  0
    2.0440    0.7162    0.0000 C   0  0  0  0  0  0  0  0  0  0  0  0
    2.4575    1.4324    0.0000 C   0  0  0  0  0  0  0  0  0  0  0  0
    3.2845    1.4324    0.0000 C   0  0  0  0  0  0  0  0  0  0  0  0
    3.6980    0.7162    0.0000 C   0  0  0  0  0  0  0  0  0  0  0  0
    3.2845   -0.0000    0.0000 C   0  0  0  0  0  0  0  0  0  0  0  0
    2.4575   -0.0000    0.0000 C   0  0  0  0  0  0  0  0  0  0  0  0
   -0.4370    2.1486    0.0000 C   0  0  0  0  0  0  0  0  0  0  0  0
   -1.2595    2.2351    0.0000 N   0  0  0  0  0  0  0  0  0  0  0  0
   -1.4315    3.0440    0.0000 C   0  0  0  0  0  0  0  0  0  0  0  0
   -2.1870    3.3804    0.0000 C   0  0  0  0  0  0  0  0  0  0  0  0
   -2.8560    2.8943    0.0000 C   0  0  0  0  0  0  0  0  0  0  0  0
   -3.6115    3.2306    0.0000 C   0  0  0  0  0  0  0  0  0  0  0  0
   -3.6980    4.0531    0.0000 C   0  0  0  0  0  0  0  0  0  0  0  0
   -3.0289    4.5392    0.0000 N   0  0  0  0  0  0  0  0  0  0  0  0
   -2.2734    4.2028    0.0000 C   0  0  0  0  0  0  0  0  0  0  0  0
   -0.7152    3.4575    0.0000 C   0  0  0  0  0  0  0  0  0  0  0  0
   -0.1007    2.9041    0.0000 N   0  0  0  0  0  0  0  0  0  0  0  0
  1  2  2  0  0  0
  2  3  1  0  0  0
  3  4  1  0  0  0
  4  5  1  0  0  0
  5 10  1  0  0  0
  5  6  1  0  0  0
  6  7  1  0  0  0
  7  8  1  0  0  0
  8  9  1  0  0  0
  9 10  1  0  0  0
  2 11  1  0  0  0
 11 21  1  0  0  0
 11 12  2  0  0  0
 12 13  1  0  0  0
 13 14  1  0  0  0
 14 19  1  0  0  0
 14 15  2  0  0  0
 15 16  1  0  0  0
 16 17  2  0  0  0
 17 18  1  0  0  0
 18 19  2  0  0  0
 13 20  2  0  0  0
 20 21  1  0  0  0
M  END
>  <Entry>
408

>  <title>
3-1846

>  <rigid docking scores>
-18.0457

>  <InChIKey>
DVCOIOUCMIEPLU-UHFFFAOYSA-N

$$$$
atoms 18 bonds 19
dotmatics
mol io
 18 19  0  0  0  0  0  0  0  0999 V2000
    5.5207    1.1203    0.0000 N   0  0  0  0  0  0  0  0  0  0  0  0
    4.6937    1.1203    0.0000 S   0  0  0  0  0  0  0  0  0  0  0  0
    4.6937    1.9473    0.0000 O   0  0  0  0  0  0  0  0  0  0  0  0
    3.8667    1.1203    0.0000 O   0  0  0  0  0  0  0  0  0  0  0  0
    4.6937    0.2933    0.0000 C   0  0  0  0  0  0  0  0  0  0  0  0
    5.3628   -0.1928    0.0000 C   0  0  0  0  0  0  0  0  0  0  0  0
    5.1072   -0.9793    0.0000 C   0  0  0  0  0  0  0  0  0  0  0  0
    4.2802   -0.9793    0.0000 S   0  0  0  0  0  0  0  0  0  0  0  0
    4.0246   -0.1928    0.0000 C   0  0  0  0  0  0  0  0  0  0  0  0
    3.2381    0.0627    0.0000 C   0  0  0  0  0  0  0  0  0  0  0  0
    3.0662    0.8717    0.0000 O   0  0  0  0  0  0  0  0  0  0  0  0
    2.6235   -0.4906    0.0000 N   0  0  0  0  0  0  0  0  0  0  0  0
    1.8370   -0.2351    0.0000 C   0  0  0  0  0  0  0  0  0  0  0  0
    1.2224   -0.7884    0.0000 C   0  0  0  0  0  0  0  0  0  0  0  0
    1.3089   -1.6109    0.0000 C   0  0  0  0  0  0  0  0  0  0  0  0
    0.5534   -1.9473    0.0000 C   0  0  0  0  0  0  0  0  0  0  0  0
    0.0000   -1.3327    0.0000 C   0  0  0  0  0  0  0  0  0  0  0  0
    0.4135   -0.6165    0.0000 S   0  0  0  0  0  0  0  0  0  0  0  0
  1  2  1  0  0  0
  2  3  2  0  0  0
  2  4  2  0  0  0
  2  5  1  0  0  0
  5  9  2  0  0  0
  5  6  1  0  0  0
  6  7  2  0  0  0
  7  8  1  0  0  0
  8  9  1  0  0  0
  9 10  1  0  0  0
 10 11  2  0  0  0
 10 12  1  0  0  0
 12 13  1  0  0  0
 13 14  1  0  0  0
 14 18  1  0  0  0
 14 15  2  0  0  0
 15 16  1  0  0  0
 16 17  2  0  0  0
 17 18  1  0  0  0
M  END
>  <Entry>
409

>  <title>
3-1876

>  <rigid docking scores>
-16.4496

>  <InChIKey>
WEPNDWPDVZYVIW-UHFFFAOYSA-N

$$$$
atoms 22 bonds 25
dotmatics
mol io
 22 25  0  0  0  0  0  0  0  0999 V2000
   -2.8477    4.6057    0.0000 C   0  0  0  0  0  0  0  0  0  0  0  0
   -2.4342    5.3219    0.0000 C   0  0  0  0  0  0  0  0  0  0  0  0
   -1.6072    5.3219    0.0000 C   0  0  0  0  0  0  0  0  0  0  0  0
   -1.1937    4.6057    0.0000 C   0  0  0  0  0  0  0  0  0  0  0  0
   -0.3667    4.6057    0.0000 C   0  0  0  0  0  0  0  0  0  0  0  0
    0.1194    5.2747    0.0000 N   0  0  0  0  0  0  0  0  0  0  0  0
    0.9060    5.0192    0.0000 N   0  0  0  0  0  0  0  0  0  0  0  0
    0.9060    4.1922    0.0000 C   0  0  0  0  0  0  0  0  0  0  0  0
    1.5750    3.7061    0.0000 C   0  0  0  0  0  0  0  0  0  0  0  0
    2.3616    3.9616    0.0000 C   0  0  0  0  0  0  0  0  0  0  0  0
    2.8477    3.2926    0.0000 C   0  0  0  0  0  0  0  0  0  0  0  0
    2.3616    2.6235    0.0000 N   0  0  0  0  0  0  0  0  0  0  0  0
    2.6171    1.8370    0.0000 C   0  0  0  0  0  0  0  0  0  0  0  0
    2.0637    1.2224    0.0000 C   0  0  0  0  0  0  0  0  0  0  0  0
    2.2357    0.4135    0.0000 C   0  0  0  0  0  0  0  0  0  0  0  0
    1.5195   -0.0000    0.0000 O   0  0  0  0  0  0  0  0  0  0  0  0
    0.9049    0.5534    0.0000 C   0  0  0  0  0  0  0  0  0  0  0  0
    1.2413    1.3089    0.0000 N   0  0  0  0  0  0  0  0  0  0  0  0
    1.5750    2.8791    0.0000 C   0  0  0  0  0  0  0  0  0  0  0  0
    0.1194    3.9366    0.0000 N   0  0  0  0  0  0  0  0  0  0  0  0
   -1.6072    3.8895    0.0000 C   0  0  0  0  0  0  0  0  0  0  0  0
   -2.4342    3.8895    0.0000 C   0  0  0  0  0  0  0  0  0  0  0  0
  1 22  1  0  0  0
  1  2  2  0  0  0
  2  3  1  0  0  0
  3  4  2  0  0  0
  4  5  1  0  0  0
  5 20  1  0  0  0
  5  6  2  0  0  0
  6  7  1  0  0  0
  7  8  1  0  0  0
  8  9  1  0  0  0
  9 19  1  0  0  0
  9 10  1  0  0  0
 10 11  1  0  0  0
 11 12  1  0  0  0
 12 13  1  0  0  0
 13 14  1  0  0  0
 14 18  1  0  0  0
 14 15  2  0  0  0
 15 16  1  0  0  0
 16 17  1  0  0  0
 17 18  2  0  0  0
 12 19  1  0  0  0
  8 20  2  0  0  0
  4 21  1  0  0  0
 21 22  2  0  0  0
M  END
>  <Entry>
410

>  <title>
1-2184

>  <rigid docking scores>
-18.5312

>  <InChIKey>
JEAOLQYMFBYWOM-UHFFFAOYSA-N

$$$$
atoms 23 bonds 26
dotmatics
mol io
 23 26  0  0  0  0  0  0  0  0999 V2000
    2.5764    1.9040    0.0000 O   0  0  0  0  0  0  0  0  0  0  0  0
    3.2926    1.4905    0.0000 C   0  0  0  0  0  0  0  0  0  0  0  0
    3.2926    0.6635    0.0000 C   0  0  0  0  0  0  0  0  0  0  0  0
    3.9616    0.1774    0.0000 O   0  0  0  0  0  0  0  0  0  0  0  0
    3.7061   -0.6092    0.0000 C   0  0  0  0  0  0  0  0  0  0  0  0
    4.1922   -1.2782    0.0000 C   0  0  0  0  0  0  0  0  0  0  0  0
    5.0147   -1.1918    0.0000 C   0  0  0  0  0  0  0  0  0  0  0  0
    5.5008   -1.8608    0.0000 C   0  0  0  0  0  0  0  0  0  0  0  0
    5.1644   -2.6163    0.0000 C   0  0  0  0  0  0  0  0  0  0  0  0
    4.3419   -2.7028    0.0000 C   0  0  0  0  0  0  0  0  0  0  0  0
    3.8558   -2.0337    0.0000 C   0  0  0  0  0  0  0  0  0  0  0  0
    2.8791   -0.6092    0.0000 N   0  0  0  0  0  0  0  0  0  0  0  0
    2.6235    0.1774    0.0000 C   0  0  0  0  0  0  0  0  0  0  0  0
    1.8370    0.4329    0.0000 C   0  0  0  0  0  0  0  0  0  0  0  0
    1.2224   -0.1205    0.0000 N   0  0  0  0  0  0  0  0  0  0  0  0
    0.4135    0.0515    0.0000 C   0  0  0  0  0  0  0  0  0  0  0  0
    0.0000   -0.6647    0.0000 C   0  0  0  0  0  0  0  0  0  0  0  0
    0.5534   -1.2793    0.0000 C   0  0  0  0  0  0  0  0  0  0  0  0
    1.3089   -0.9429    0.0000 C   0  0  0  0  0  0  0  0  0  0  0  0
    4.0088    1.9040    0.0000 N   0  0  0  0  0  0  0  0  0  0  0  0
    4.2228    2.7028    0.0000 C   0  0  0  0  0  0  0  0  0  0  0  0
    5.0217    2.4887    0.0000 C   0  0  0  0  0  0  0  0  0  0  0  0
    4.8076    1.6899    0.0000 C   0  0  0  0  0  0  0  0  0  0  0  0
  1  2  2  0  0  0
  2  3  1  0  0  0
  3 13  2  0  0  0
  3  4  1  0  0  0
  4  5  1  0  0  0
  5  6  1  0  0  0
  6 11  1  0  0  0
  6  7  2  0  0  0
  7  8  1  0  0  0
  8  9  2  0  0  0
  9 10  1  0  0  0
 10 11  2  0  0  0
  5 12  2  0  0  0
 12 13  1  0  0  0
 13 14  1  0  0  0
 14 15  1  0  0  0
 15 19  1  0  0  0
 15 16  1  0  0  0
 16 17  1  0  0  0
 17 18  1  0  0  0
 18 19  1  0  0  0
  2 20  1  0  0  0
 20 23  1  0  0  0
 20 21  1  0  0  0
 21 22  1  0  0  0
 22 23  1  0  0  0
M  END
>  <Entry>
411

>  <title>
1-2193

>  <rigid docking scores>
-16.3357

>  <InChIKey>
UAKNQRKEFPLDCV-UHFFFAOYSA-N

$$$$
atoms 22 bonds 25
dotmatics
mol io
 22 25  0  0  0  0  0  0  0  0999 V2000
    0.0000    2.6604    0.0000 C   0  0  0  0  0  0  0  0  0  0  0  0
    0.7158    2.2462    0.0000 N   0  0  0  0  0  0  0  0  0  0  0  0
    0.7158    1.4180    0.0000 C   0  0  0  0  0  0  0  0  0  0  0  0
    1.4317    1.0039    0.0000 C   0  0  0  0  0  0  0  0  0  0  0  0
    2.1475    1.4180    0.0000 C   0  0  0  0  0  0  0  0  0  0  0  0
    2.9344    1.1636    0.0000 C   0  0  0  0  0  0  0  0  0  0  0  0
    3.4195    1.8321    0.0000 N   0  0  0  0  0  0  0  0  0  0  0  0
    4.2465    1.8321    0.0000 C   0  0  0  0  0  0  0  0  0  0  0  0
    4.6600    1.1159    0.0000 C   0  0  0  0  0  0  0  0  0  0  0  0
    5.4824    1.0295    0.0000 N   0  0  0  0  0  0  0  0  0  0  0  0
    5.6544    0.2205    0.0000 N   0  0  0  0  0  0  0  0  0  0  0  0
    4.9382   -0.1930    0.0000 C   0  0  0  0  0  0  0  0  0  0  0  0
    4.8517   -1.0154    0.0000 C   0  0  0  0  0  0  0  0  0  0  0  0
    5.5208   -1.5015    0.0000 C   0  0  0  0  0  0  0  0  0  0  0  0
    5.4344   -2.3240    0.0000 C   0  0  0  0  0  0  0  0  0  0  0  0
    4.6789   -2.6604    0.0000 C   0  0  0  0  0  0  0  0  0  0  0  0
    4.0098   -2.1743    0.0000 C   0  0  0  0  0  0  0  0  0  0  0  0
    4.0962   -1.3518    0.0000 C   0  0  0  0  0  0  0  0  0  0  0  0
    4.3236    0.3604    0.0000 O   0  0  0  0  0  0  0  0  0  0  0  0
    2.9344    2.5006    0.0000 C   0  0  0  0  0  0  0  0  0  0  0  0
    2.1475    2.2462    0.0000 C   0  0  0  0  0  0  0  0  0  0  0  0
    1.4317    2.6604    0.0000 C   0  0  0  0  0  0  0  0  0  0  0  0
  1  2  1  0  0  0
  2 22  1  0  0  0
  2  3  1  0  0  0
  3  4  1  0  0  0
  4  5  1  0  0  0
  5 21  1  0  0  0
  5  6  1  0  0  0
  6  7  1  0  0  0
  7  8  1  0  0  0
  8  9  1  0  0  0
  9 19  1  0  0  0
  9 10  2  0  0  0
 10 11  1  0  0  0
 11 12  2  0  0  0
 12 13  1  0  0  0
 13 18  1  0  0  0
 13 14  2  0  0  0
 14 15  1  0  0  0
 15 16  2  0  0  0
 16 17  1  0  0  0
 17 18  2  0  0  0
 12 19  1  0  0  0
  7 20  1  0  0  0
 20 21  1  0  0  0
 21 22  1  0  0  0
M  END
>  <Entry>
412

>  <title>
1-2196

>  <rigid docking scores>
-18.8639

>  <InChIKey>
SWUOAAULPZFUKL-UHFFFAOYSA-N

$$$$
atoms 19 bonds 21
dotmatics
mol io
 19 21  0  0  0  0  0  0  0  0999 V2000
    4.4925    2.3580    0.0000 O   0  0  0  0  0  0  0  0  0  0  0  0
    4.4925    1.5310    0.0000 C   0  0  0  0  0  0  0  0  0  0  0  0
    5.2087    1.1175    0.0000 C   0  0  0  0  0  0  0  0  0  0  0  0
    5.2087    0.2905    0.0000 C   0  0  0  0  0  0  0  0  0  0  0  0
    4.4925   -0.1230    0.0000 N   0  0  0  0  0  0  0  0  0  0  0  0
    4.4925   -0.9500    0.0000 C   0  0  0  0  0  0  0  0  0  0  0  0
    3.7763   -1.3635    0.0000 C   0  0  0  0  0  0  0  0  0  0  0  0
    3.6898   -2.1860    0.0000 C   0  0  0  0  0  0  0  0  0  0  0  0
    2.8809   -2.3580    0.0000 N   0  0  0  0  0  0  0  0  0  0  0  0
    2.4674   -1.6418    0.0000 N   0  0  0  0  0  0  0  0  0  0  0  0
    1.6449   -1.5553    0.0000 C   0  0  0  0  0  0  0  0  0  0  0  0
    1.1588   -2.2244    0.0000 C   0  0  0  0  0  0  0  0  0  0  0  0
    0.3364   -2.1379    0.0000 C   0  0  0  0  0  0  0  0  0  0  0  0
    0.0000   -1.3824    0.0000 C   0  0  0  0  0  0  0  0  0  0  0  0
    0.4861   -0.7134    0.0000 C   0  0  0  0  0  0  0  0  0  0  0  0
    1.3086   -0.7998    0.0000 C   0  0  0  0  0  0  0  0  0  0  0  0
    3.0208   -1.0272    0.0000 C   0  0  0  0  0  0  0  0  0  0  0  0
    3.7763    0.2905    0.0000 C   0  0  0  0  0  0  0  0  0  0  0  0
    3.7763    1.1175    0.0000 C   0  0  0  0  0  0  0  0  0  0  0  0
  1  2  1  0  0  0
  2 19  1  0  0  0
  2  3  1  0  0  0
  3  4  1  0  0  0
  4  5  1  0  0  0
  5  6  1  0  0  0
  6  7  1  0  0  0
  7 17  2  0  0  0
  7  8  1  0  0  0
  8  9  2  0  0  0
  9 10  1  0  0  0
 10 11  1  0  0  0
 11 16  1  0  0  0
 11 12  2  0  0  0
 12 13  1  0  0  0
 13 14  2  0  0  0
 14 15  1  0  0  0
 15 16  2  0  0  0
 10 17  1  0  0  0
  5 18  1  0  0  0
 18 19  1  0  0  0
M  END
>  <Entry>
413

>  <title>
3-2352

>  <rigid docking scores>
-16.0467

>  <InChIKey>
FXZMSQMJEALQJL-UHFFFAOYSA-N

>  <Pubchem>
36924247

>  <Mcule>
MCULE-8609888181

>  <MolPort>
MolPort-009-150-022

$$$$
atoms 21 bonds 23
dotmatics
mol io
 21 23  0  0  0  0  0  0  0  0999 V2000
   -1.2988    2.5860    0.0000 C   0  0  0  0  0  0  0  0  0  0  0  0
   -0.4718    2.5860    0.0000 C   0  0  0  0  0  0  0  0  0  0  0  0
    0.0143    3.2550    0.0000 O   0  0  0  0  0  0  0  0  0  0  0  0
    0.8008    2.9995    0.0000 C   0  0  0  0  0  0  0  0  0  0  0  0
    1.4698    3.4856    0.0000 C   0  0  0  0  0  0  0  0  0  0  0  0
    1.3834    4.3081    0.0000 C   0  0  0  0  0  0  0  0  0  0  0  0
    2.0525    4.7942    0.0000 C   0  0  0  0  0  0  0  0  0  0  0  0
    2.8080    4.4578    0.0000 C   0  0  0  0  0  0  0  0  0  0  0  0
    3.4770    4.9439    0.0000 F   0  0  0  0  0  0  0  0  0  0  0  0
    2.8944    3.6353    0.0000 C   0  0  0  0  0  0  0  0  0  0  0  0
    2.2253    3.1492    0.0000 C   0  0  0  0  0  0  0  0  0  0  0  0
    0.8008    2.1725    0.0000 N   0  0  0  0  0  0  0  0  0  0  0  0
    0.0143    1.9169    0.0000 C   0  0  0  0  0  0  0  0  0  0  0  0
   -0.2413    1.1304    0.0000 C   0  0  0  0  0  0  0  0  0  0  0  0
   -1.0502    0.9585    0.0000 N   0  0  0  0  0  0  0  0  0  0  0  0
   -1.3058    0.1719    0.0000 C   0  0  0  0  0  0  0  0  0  0  0  0
   -2.1147    0.0000    0.0000 C   0  0  0  0  0  0  0  0  0  0  0  0
   -2.6681    0.6146    0.0000 C   0  0  0  0  0  0  0  0  0  0  0  0
   -3.4770    0.4426    0.0000 O   0  0  0  0  0  0  0  0  0  0  0  0
   -2.4125    1.4011    0.0000 C   0  0  0  0  0  0  0  0  0  0  0  0
   -1.6036    1.5730    0.0000 C   0  0  0  0  0  0  0  0  0  0  0  0
  1  2  1  0  0  0
  2 13  2  0  0  0
  2  3  1  0  0  0
  3  4  1  0  0  0
  4  5  1  0  0  0
  5 11  1  0  0  0
  5  6  2  0  0  0
  6  7  1  0  0  0
  7  8  2  0  0  0
  8  9  1  0  0  0
  8 10  1  0  0  0
 10 11  2  0  0  0
  4 12  2  0  0  0
 12 13  1  0  0  0
 13 14  1  0  0  0
 14 15  1  0  0  0
 15 21  1  0  0  0
 15 16  1  0  0  0
 16 17  1  0  0  0
 17 18  1  0  0  0
 18 19  1  0  0  0
 18 20  1  0  0  0
 20 21  1  0  0  0
M  END
>  <Entry>
414

>  <title>
3-2353

>  <rigid docking scores>
-17.0922

>  <InChIKey>
LQUZHVFATDLMOP-UHFFFAOYSA-N

$$$$
atoms 21 bonds 23
dotmatics
mol io
 21 23  0  0  0  0  0  0  0  0999 V2000
    7.4505    1.7882    0.0000 O   0  0  0  0  0  0  0  0  0  0  0  0
    6.6235    1.7889    0.0000 C   0  0  0  0  0  0  0  0  0  0  0  0
    6.2094    1.0730    0.0000 C   0  0  0  0  0  0  0  0  0  0  0  0
    6.6222    0.3565    0.0000 C   0  0  0  0  0  0  0  0  0  0  0  0
    6.2081   -0.3594    0.0000 C   0  0  0  0  0  0  0  0  0  0  0  0
    5.3811   -0.3586    0.0000 C   0  0  0  0  0  0  0  0  0  0  0  0
    4.9682    0.3579    0.0000 N   0  0  0  0  0  0  0  0  0  0  0  0
    4.1412    0.3586    0.0000 C   0  0  0  0  0  0  0  0  0  0  0  0
    3.7271   -0.3572    0.0000 C   0  0  0  0  0  0  0  0  0  0  0  0
    4.1412   -1.0730    0.0000 C   0  0  0  0  0  0  0  0  0  0  0  0
    3.7271   -1.7889    0.0000 C   0  0  0  0  0  0  0  0  0  0  0  0
    2.8989   -1.7889    0.0000 C   0  0  0  0  0  0  0  0  0  0  0  0
    2.4847   -1.0730    0.0000 C   0  0  0  0  0  0  0  0  0  0  0  0
    1.6565   -1.0730    0.0000 C   0  0  0  0  0  0  0  0  0  0  0  0
    1.2424   -1.7889    0.0000 C   0  0  0  0  0  0  0  0  0  0  0  0
    0.4141   -1.7889    0.0000 C   0  0  0  0  0  0  0  0  0  0  0  0
    0.0000   -1.0730    0.0000 C   0  0  0  0  0  0  0  0  0  0  0  0
    0.4141   -0.3572    0.0000 C   0  0  0  0  0  0  0  0  0  0  0  0
    1.2424   -0.3572    0.0000 C   0  0  0  0  0  0  0  0  0  0  0  0
    2.8989   -0.3572    0.0000 N   0  0  0  0  0  0  0  0  0  0  0  0
    5.3824    1.0738    0.0000 C   0  0  0  0  0  0  0  0  0  0  0  0
  1  2  1  0  0  0
  2  3  1  0  0  0
  3 21  1  0  0  0
  3  4  1  0  0  0
  4  5  1  0  0  0
  5  6  1  0  0  0
  6  7  1  0  0  0
  7  8  1  0  0  0
  8  9  1  0  0  0
  9 20  1  0  0  0
  9 10  2  0  0  0
 10 11  1  0  0  0
 11 12  2  0  0  0
 12 13  1  0  0  0
 13 14  1  0  0  0
 14 19  1  0  0  0
 14 15  2  0  0  0
 15 16  1  0  0  0
 16 17  2  0  0  0
 17 18  1  0  0  0
 18 19  2  0  0  0
 13 20  2  0  0  0
  7 21  1  0  0  0
M  END
>  <Entry>
415

>  <title>
3-2787

>  <rigid docking scores>
-16.1148

>  <InChIKey>
FVIIGTCDUNUSML-UHFFFAOYSA-N

$$$$
atoms 24 bonds 26
dotmatics
mol io
 24 26  0  0  0  0  0  0  0  0999 V2000
    6.2243    1.4605    0.0000 C   0  0  0  0  0  0  0  0  0  0  0  0
    6.2243    0.6335    0.0000 C   0  0  0  0  0  0  0  0  0  0  0  0
    6.9405    0.2200    0.0000 O   0  0  0  0  0  0  0  0  0  0  0  0
    5.5081    0.2200    0.0000 N   0  0  0  0  0  0  0  0  0  0  0  0
    5.5081   -0.6070    0.0000 C   0  0  0  0  0  0  0  0  0  0  0  0
    6.2243   -1.0205    0.0000 C   0  0  0  0  0  0  0  0  0  0  0  0
    6.2243   -1.8475    0.0000 C   0  0  0  0  0  0  0  0  0  0  0  0
    5.5081   -2.2610    0.0000 C   0  0  0  0  0  0  0  0  0  0  0  0
    4.7919   -1.8475    0.0000 C   0  0  0  0  0  0  0  0  0  0  0  0
    4.7919   -1.0205    0.0000 C   0  0  0  0  0  0  0  0  0  0  0  0
    4.0757   -0.6070    0.0000 C   0  0  0  0  0  0  0  0  0  0  0  0
    3.3202   -0.9434    0.0000 C   0  0  0  0  0  0  0  0  0  0  0  0
    2.7669   -0.3288    0.0000 C   0  0  0  0  0  0  0  0  0  0  0  0
    1.9444   -0.4152    0.0000 C   0  0  0  0  0  0  0  0  0  0  0  0
    1.6080   -1.1707    0.0000 O   0  0  0  0  0  0  0  0  0  0  0  0
    1.4583    0.2538    0.0000 N   0  0  0  0  0  0  0  0  0  0  0  0
    0.6358    0.1674    0.0000 C   0  0  0  0  0  0  0  0  0  0  0  0
    0.1497    0.8364    0.0000 C   0  0  0  0  0  0  0  0  0  0  0  0
    0.4861    1.5919    0.0000 N   0  0  0  0  0  0  0  0  0  0  0  0
    0.0000    2.2610    0.0000 C   0  0  0  0  0  0  0  0  0  0  0  0
    1.3086    1.6784    0.0000 C   0  0  0  0  0  0  0  0  0  0  0  0
    1.7947    1.0093    0.0000 C   0  0  0  0  0  0  0  0  0  0  0  0
    3.1804    0.3874    0.0000 N   0  0  0  0  0  0  0  0  0  0  0  0
    3.9893    0.2155    0.0000 O   0  0  0  0  0  0  0  0  0  0  0  0
  1  2  1  0  0  0
  2  3  2  0  0  0
  2  4  1  0  0  0
  4  5  1  0  0  0
  5 10  1  0  0  0
  5  6  2  0  0  0
  6  7  1  0  0  0
  7  8  2  0  0  0
  8  9  1  0  0  0
  9 10  2  0  0  0
 10 11  1  0  0  0
 11 24  1  0  0  0
 11 12  2  0  0  0
 12 13  1  0  0  0
 13 14  1  0  0  0
 14 15  2  0  0  0
 14 16  1  0  0  0
 16 22  1  0  0  0
 16 17  1  0  0  0
 17 18  1  0  0  0
 18 19  1  0  0  0
 19 20  1  0  0  0
 19 21  1  0  0  0
 21 22  1  0  0  0
 13 23  2  0  0  0
 23 24  1  0  0  0
M  END
>  <Entry>
416

>  <title>
1-2207

>  <rigid docking scores>
-18.4559

>  <InChIKey>
QVFQRCXJXJICIX-UHFFFAOYSA-N

$$$$
atoms 19 bonds 21
dotmatics
mol io
 19 21  0  0  0  0  0  0  0  0999 V2000
    4.9602    1.6484    0.0000 N   0  0  0  0  0  0  0  0  0  0  0  0
    4.9602    0.8214    0.0000 C   0  0  0  0  0  0  0  0  0  0  0  0
    5.6292    0.3353    0.0000 N   0  0  0  0  0  0  0  0  0  0  0  0
    5.3737   -0.4512    0.0000 C   0  0  0  0  0  0  0  0  0  0  0  0
    5.8598   -1.1203    0.0000 O   0  0  0  0  0  0  0  0  0  0  0  0
    4.5467   -0.4512    0.0000 C   0  0  0  0  0  0  0  0  0  0  0  0
    4.0606   -1.1203    0.0000 C   0  0  0  0  0  0  0  0  0  0  0  0
    3.2381   -1.0338    0.0000 C   0  0  0  0  0  0  0  0  0  0  0  0
    2.6847   -1.6484    0.0000 C   0  0  0  0  0  0  0  0  0  0  0  0
    1.9292   -1.3120    0.0000 C   0  0  0  0  0  0  0  0  0  0  0  0
    2.0157   -0.4896    0.0000 C   0  0  0  0  0  0  0  0  0  0  0  0
    1.4011    0.0638    0.0000 C   0  0  0  0  0  0  0  0  0  0  0  0
    0.6146   -0.1918    0.0000 C   0  0  0  0  0  0  0  0  0  0  0  0
    0.0000    0.3616    0.0000 C   0  0  0  0  0  0  0  0  0  0  0  0
    0.1719    1.1705    0.0000 C   0  0  0  0  0  0  0  0  0  0  0  0
    0.9585    1.4261    0.0000 N   0  0  0  0  0  0  0  0  0  0  0  0
    1.5730    0.8727    0.0000 C   0  0  0  0  0  0  0  0  0  0  0  0
    2.8246   -0.3176    0.0000 O   0  0  0  0  0  0  0  0  0  0  0  0
    4.2911    0.3353    0.0000 S   0  0  0  0  0  0  0  0  0  0  0  0
  1  2  2  0  0  0
  2 19  1  0  0  0
  2  3  1  0  0  0
  3  4  1  0  0  0
  4  5  2  0  0  0
  4  6  1  0  0  0
  6  7  2  0  0  0
  7  8  1  0  0  0
  8 18  1  0  0  0
  8  9  2  0  0  0
  9 10  1  0  0  0
 10 11  2  0  0  0
 11 12  1  0  0  0
 12 17  1  0  0  0
 12 13  2  0  0  0
 13 14  1  0  0  0
 14 15  2  0  0  0
 15 16  1  0  0  0
 16 17  2  0  0  0
 11 18  1  0  0  0
  6 19  1  0  0  0
M  END
>  <Entry>
417

>  <title>
3-3666

>  <rigid docking scores>
-16.2978

>  <InChIKey>
WWPDLYFTDCJSJR-WDZFZDKYSA-N

$$$$
atoms 18 bonds 20
dotmatics
mol io
 18 20  0  0  0  0  0  0  0  0999 V2000
   -1.8062    1.4920    0.0000 C   0  0  0  0  0  0  0  0  0  0  0  0
   -1.3927    2.2082    0.0000 N   0  0  0  0  0  0  0  0  0  0  0  0
   -0.5657    2.2082    0.0000 C   0  0  0  0  0  0  0  0  0  0  0  0
   -0.0796    2.8772    0.0000 N   0  0  0  0  0  0  0  0  0  0  0  0
    0.7070    2.6217    0.0000 N   0  0  0  0  0  0  0  0  0  0  0  0
    0.7070    1.7947    0.0000 C   0  0  0  0  0  0  0  0  0  0  0  0
    1.3760    1.3086    0.0000 C   0  0  0  0  0  0  0  0  0  0  0  0
    2.1315    1.6449    0.0000 C   0  0  0  0  0  0  0  0  0  0  0  0
    2.8006    1.1588    0.0000 C   0  0  0  0  0  0  0  0  0  0  0  0
    2.7141    0.3364    0.0000 C   0  0  0  0  0  0  0  0  0  0  0  0
    1.9586   -0.0000    0.0000 N   0  0  0  0  0  0  0  0  0  0  0  0
    1.2896    0.4861    0.0000 C   0  0  0  0  0  0  0  0  0  0  0  0
   -0.0796    1.5391    0.0000 S   0  0  0  0  0  0  0  0  0  0  0  0
   -1.8062    2.9244    0.0000 C   0  0  0  0  0  0  0  0  0  0  0  0
   -2.6286    3.0108    0.0000 C   0  0  0  0  0  0  0  0  0  0  0  0
   -2.8006    3.8197    0.0000 C   0  0  0  0  0  0  0  0  0  0  0  0
   -2.0844    4.2332    0.0000 C   0  0  0  0  0  0  0  0  0  0  0  0
   -1.4698    3.6799    0.0000 C   0  0  0  0  0  0  0  0  0  0  0  0
  1  2  1  0  0  0
  2  3  1  0  0  0
  3 13  1  0  0  0
  3  4  2  0  0  0
  4  5  1  0  0  0
  5  6  2  0  0  0
  6  7  1  0  0  0
  7 12  1  0  0  0
  7  8  2  0  0  0
  8  9  1  0  0  0
  9 10  2  0  0  0
 10 11  1  0  0  0
 11 12  2  0  0  0
  6 13  1  0  0  0
  2 14  1  0  0  0
 14 18  1  0  0  0
 14 15  1  0  0  0
 15 16  1  0  0  0
 16 17  1  0  0  0
 17 18  1  0  0  0
M  END
>  <Entry>
418

>  <title>
3-3929

>  <rigid docking scores>
-15.7034

>  <InChIKey>
WWMMTUHVLSNUPM-UHFFFAOYSA-N

$$$$
atoms 22 bonds 25
dotmatics
mol io
 22 25  0  0  0  0  0  0  0  0999 V2000
    6.4311    1.3146    0.0000 O   0  0  0  0  0  0  0  0  0  0  0  0
    6.0176    0.5984    0.0000 C   0  0  0  0  0  0  0  0  0  0  0  0
    6.4311   -0.1178    0.0000 C   0  0  0  0  0  0  0  0  0  0  0  0
    7.2535   -0.2042    0.0000 C   0  0  0  0  0  0  0  0  0  0  0  0
    7.4255   -1.0132    0.0000 C   0  0  0  0  0  0  0  0  0  0  0  0
    6.7093   -1.4267    0.0000 C   0  0  0  0  0  0  0  0  0  0  0  0
    6.0947   -0.8733    0.0000 O   0  0  0  0  0  0  0  0  0  0  0  0
    5.1906    0.5984    0.0000 N   0  0  0  0  0  0  0  0  0  0  0  0
    4.7771   -0.1178    0.0000 C   0  0  0  0  0  0  0  0  0  0  0  0
    3.9501   -0.1178    0.0000 C   0  0  0  0  0  0  0  0  0  0  0  0
    3.5366    0.5984    0.0000 N   0  0  0  0  0  0  0  0  0  0  0  0
    2.7096    0.5984    0.0000 C   0  0  0  0  0  0  0  0  0  0  0  0
    2.2185   -0.0701    0.0000 N   0  0  0  0  0  0  0  0  0  0  0  0
    1.4317    0.1843    0.0000 C   0  0  0  0  0  0  0  0  0  0  0  0
    0.7158   -0.2298    0.0000 C   0  0  0  0  0  0  0  0  0  0  0  0
    0.0000    0.1843    0.0000 C   0  0  0  0  0  0  0  0  0  0  0  0
    0.0000    1.0125    0.0000 C   0  0  0  0  0  0  0  0  0  0  0  0
    0.7158    1.4267    0.0000 C   0  0  0  0  0  0  0  0  0  0  0  0
    1.4317    1.0125    0.0000 C   0  0  0  0  0  0  0  0  0  0  0  0
    2.2185    1.2669    0.0000 S   0  0  0  0  0  0  0  0  0  0  0  0
    3.9501    1.3146    0.0000 C   0  0  0  0  0  0  0  0  0  0  0  0
    4.7771    1.3146    0.0000 C   0  0  0  0  0  0  0  0  0  0  0  0
  1  2  2  0  0  0
  2  3  1  0  0  0
  3  7  1  0  0  0
  3  4  1  0  0  0
  4  5  1  0  0  0
  5  6  1  0  0  0
  6  7  1  0  0  0
  2  8  1  0  0  0
  8 22  1  0  0  0
  8  9  1  0  0  0
  9 10  1  0  0  0
 10 11  1  0  0  0
 11 12  1  0  0  0
 12 20  1  0  0  0
 12 13  2  0  0  0
 13 14  1  0  0  0
 14 19  1  0  0  0
 14 15  2  0  0  0
 15 16  1  0  0  0
 16 17  2  0  0  0
 17 18  1  0  0  0
 18 19  2  0  0  0
 19 20  1  0  0  0
 11 21  1  0  0  0
 21 22  1  0  0  0
M  END
>  <Entry>
419

>  <title>
3-4745

>  <rigid docking scores>
-16.3902

>  <InChIKey>
XRIFSGUVYRVSNO-UHFFFAOYSA-N

>  <Pubchem>
44917059

>  <Mcule>
MCULE-4633987116

$$$$
atoms 22 bonds 24
dotmatics
mol io
 22 24  0  0  0  0  0  0  0  0999 V2000
   -3.9197    3.6665    0.0000 C   0  0  0  0  0  0  0  0  0  0  0  0
   -3.0927    3.6665    0.0000 C   0  0  0  0  0  0  0  0  0  0  0  0
   -2.6792    4.3827    0.0000 C   0  0  0  0  0  0  0  0  0  0  0  0
   -1.8522    4.3827    0.0000 C   0  0  0  0  0  0  0  0  0  0  0  0
   -1.4387    3.6665    0.0000 C   0  0  0  0  0  0  0  0  0  0  0  0
   -0.6117    3.6665    0.0000 C   0  0  0  0  0  0  0  0  0  0  0  0
   -0.1256    4.3355    0.0000 C   0  0  0  0  0  0  0  0  0  0  0  0
    0.6609    4.0800    0.0000 S   0  0  0  0  0  0  0  0  0  0  0  0
    0.6609    3.2530    0.0000 C   0  0  0  0  0  0  0  0  0  0  0  0
    1.3299    2.7669    0.0000 N   0  0  0  0  0  0  0  0  0  0  0  0
    1.2435    1.9444    0.0000 C   0  0  0  0  0  0  0  0  0  0  0  0
    0.4880    1.6080    0.0000 O   0  0  0  0  0  0  0  0  0  0  0  0
    1.9126    1.4583    0.0000 C   0  0  0  0  0  0  0  0  0  0  0  0
    2.6681    1.7947    0.0000 C   0  0  0  0  0  0  0  0  0  0  0  0
    3.3371    1.3086    0.0000 C   0  0  0  0  0  0  0  0  0  0  0  0
    3.2507    0.4861    0.0000 N   0  0  0  0  0  0  0  0  0  0  0  0
    3.9197   -0.0000    0.0000 C   0  0  0  0  0  0  0  0  0  0  0  0
    2.4952    0.1497    0.0000 C   0  0  0  0  0  0  0  0  0  0  0  0
    1.8261    0.6358    0.0000 C   0  0  0  0  0  0  0  0  0  0  0  0
   -0.1256    2.9974    0.0000 N   0  0  0  0  0  0  0  0  0  0  0  0
   -1.8522    2.9503    0.0000 C   0  0  0  0  0  0  0  0  0  0  0  0
   -2.6792    2.9503    0.0000 C   0  0  0  0  0  0  0  0  0  0  0  0
  1  2  1  0  0  0
  2 22  1  0  0  0
  2  3  2  0  0  0
  3  4  1  0  0  0
  4  5  2  0  0  0
  5  6  1  0  0  0
  6 20  1  0  0  0
  6  7  2  0  0  0
  7  8  1  0  0  0
  8  9  1  0  0  0
  9 10  1  0  0  0
 10 11  1  0  0  0
 11 12  2  0  0  0
 11 13  1  0  0  0
 13 19  1  0  0  0
 13 14  1  0  0  0
 14 15  1  0  0  0
 15 16  1  0  0  0
 16 17  1  0  0  0
 16 18  1  0  0  0
 18 19  1  0  0  0
  9 20  2  0  0  0
  5 21  1  0  0  0
 21 22  2  0  0  0
M  END
>  <Entry>
420

>  <title>
3-5860

>  <rigid docking scores>
-17.7673

>  <InChIKey>
AGALXGZFHBJXEJ-UHFFFAOYSA-N

>  <Mcule>
MCULE-3792344136

$$$$
atoms 21 bonds 23
dotmatics
mol io
 21 23  0  0  0  0  0  0  0  0999 V2000
   -2.6878    3.4575    0.0000 N   0  0  0  0  0  0  0  0  0  0  0  0
   -2.2743    2.7413    0.0000 C   0  0  0  0  0  0  0  0  0  0  0  0
   -2.6878    2.0251    0.0000 O   0  0  0  0  0  0  0  0  0  0  0  0
   -1.4473    2.7413    0.0000 C   0  0  0  0  0  0  0  0  0  0  0  0
   -1.0338    3.4575    0.0000 C   0  0  0  0  0  0  0  0  0  0  0  0
   -0.2068    3.4575    0.0000 C   0  0  0  0  0  0  0  0  0  0  0  0
    0.2068    4.1737    0.0000 C   0  0  0  0  0  0  0  0  0  0  0  0
    1.0338    4.1737    0.0000 C   0  0  0  0  0  0  0  0  0  0  0  0
    1.4473    4.8899    0.0000 C   0  0  0  0  0  0  0  0  0  0  0  0
    2.2743    4.8899    0.0000 C   0  0  0  0  0  0  0  0  0  0  0  0
    2.6878    4.1737    0.0000 C   0  0  0  0  0  0  0  0  0  0  0  0
    2.2743    3.4575    0.0000 C   0  0  0  0  0  0  0  0  0  0  0  0
    1.4473    3.4575    0.0000 C   0  0  0  0  0  0  0  0  0  0  0  0
    0.2068    2.7413    0.0000 N   0  0  0  0  0  0  0  0  0  0  0  0
   -0.2068    2.0251    0.0000 C   0  0  0  0  0  0  0  0  0  0  0  0
    0.2068    1.3089    0.0000 C   0  0  0  0  0  0  0  0  0  0  0  0
    1.0292    1.2224    0.0000 C   0  0  0  0  0  0  0  0  0  0  0  0
    1.2012    0.4135    0.0000 C   0  0  0  0  0  0  0  0  0  0  0  0
    0.4850   -0.0000    0.0000 C   0  0  0  0  0  0  0  0  0  0  0  0
   -0.1296    0.5534    0.0000 S   0  0  0  0  0  0  0  0  0  0  0  0
   -1.0338    2.0251    0.0000 N   0  0  0  0  0  0  0  0  0  0  0  0
  1  2  1  0  0  0
  2  3  2  0  0  0
  2  4  1  0  0  0
  4 21  1  0  0  0
  4  5  2  0  0  0
  5  6  1  0  0  0
  6  7  1  0  0  0
  7  8  1  0  0  0
  8 13  1  0  0  0
  8  9  2  0  0  0
  9 10  1  0  0  0
 10 11  2  0  0  0
 11 12  1  0  0  0
 12 13  2  0  0  0
  6 14  2  0  0  0
 14 15  1  0  0  0
 15 16  1  0  0  0
 16 20  1  0  0  0
 16 17  2  0  0  0
 17 18  1  0  0  0
 18 19  2  0  0  0
 19 20  1  0  0  0
 15 21  2  0  0  0
M  END
>  <Entry>
421

>  <title>
3-6066

>  <rigid docking scores>
-18.7372

>  <InChIKey>
LLJJHFHBLDMVCO-UHFFFAOYSA-N

$$$$
atoms 21 bonds 23
dotmatics
mol io
 21 23  0  0  0  0  0  0  0  0999 V2000
    5.0323    2.0745    0.0000 C   0  0  0  0  0  0  0  0  0  0  0  0
    5.0323    1.2475    0.0000 N   0  0  0  0  0  0  0  0  0  0  0  0
    5.7774    0.8887    0.0000 C   0  0  0  0  0  0  0  0  0  0  0  0
    5.9614    0.0825    0.0000 C   0  0  0  0  0  0  0  0  0  0  0  0
    5.4458   -0.5641    0.0000 C   0  0  0  0  0  0  0  0  0  0  0  0
    4.6188   -0.5641    0.0000 N   0  0  0  0  0  0  0  0  0  0  0  0
    4.2599   -1.3092    0.0000 C   0  0  0  0  0  0  0  0  0  0  0  0
    4.7258   -1.9925    0.0000 O   0  0  0  0  0  0  0  0  0  0  0  0
    3.4352   -1.3710    0.0000 C   0  0  0  0  0  0  0  0  0  0  0  0
    3.0005   -2.0745    0.0000 C   0  0  0  0  0  0  0  0  0  0  0  0
    2.1971   -1.8785    0.0000 O   0  0  0  0  0  0  0  0  0  0  0  0
    2.1353   -1.0538    0.0000 C   0  0  0  0  0  0  0  0  0  0  0  0
    1.4318   -0.6190    0.0000 C   0  0  0  0  0  0  0  0  0  0  0  0
    0.7035   -1.0109    0.0000 C   0  0  0  0  0  0  0  0  0  0  0  0
    0.0000   -0.5762    0.0000 C   0  0  0  0  0  0  0  0  0  0  0  0
    0.0247    0.2504    0.0000 C   0  0  0  0  0  0  0  0  0  0  0  0
    0.7530    0.6423    0.0000 C   0  0  0  0  0  0  0  0  0  0  0  0
    1.4565    0.2076    0.0000 C   0  0  0  0  0  0  0  0  0  0  0  0
    2.9005   -0.7402    0.0000 C   0  0  0  0  0  0  0  0  0  0  0  0
    4.1031    0.0825    0.0000 C   0  0  0  0  0  0  0  0  0  0  0  0
    4.2871    0.8887    0.0000 C   0  0  0  0  0  0  0  0  0  0  0  0
  1  2  1  0  0  0
  2 21  1  0  0  0
  2  3  1  0  0  0
  3  4  1  0  0  0
  4  5  1  0  0  0
  5  6  1  0  0  0
  6  7  1  0  0  0
  7  8  2  0  0  0
  7  9  1  0  0  0
  9 19  1  0  0  0
  9 10  2  0  0  0
 10 11  1  0  0  0
 11 12  1  0  0  0
 12 13  1  0  0  0
 13 18  1  0  0  0
 13 14  2  0  0  0
 14 15  1  0  0  0
 15 16  2  0  0  0
 16 17  1  0  0  0
 17 18  2  0  0  0
 12 19  2  0  0  0
  6 20  1  0  0  0
 20 21  1  0  0  0
M  END
>  <Entry>
422

>  <title>
3-6139

>  <rigid docking scores>
-17.919

>  <InChIKey>
HXMLPTSORQJADP-UHFFFAOYSA-N

$$$$
atoms 19 bonds 20
dotmatics
mol io
 19 20  0  0  0  0  0  0  0  0999 V2000
    5.7296    1.2405    0.0000 C   0  0  0  0  0  0  0  0  0  0  0  0
    5.7296    0.4135    0.0000 C   0  0  0  0  0  0  0  0  0  0  0  0
    6.4458    0.0000    0.0000 C   0  0  0  0  0  0  0  0  0  0  0  0
    6.4458   -0.8270    0.0000 C   0  0  0  0  0  0  0  0  0  0  0  0
    5.7296   -1.2405    0.0000 C   0  0  0  0  0  0  0  0  0  0  0  0
    5.0134   -0.8270    0.0000 C   0  0  0  0  0  0  0  0  0  0  0  0
    5.0134    0.0000    0.0000 C   0  0  0  0  0  0  0  0  0  0  0  0
    4.2972    0.4135    0.0000 N   0  0  0  0  0  0  0  0  0  0  0  0
    3.5810    0.0000    0.0000 C   0  0  0  0  0  0  0  0  0  0  0  0
    3.5810   -0.8270    0.0000 O   0  0  0  0  0  0  0  0  0  0  0  0
    2.8648    0.4135    0.0000 N   0  0  0  0  0  0  0  0  0  0  0  0
    2.8648    1.2405    0.0000 C   0  0  0  0  0  0  0  0  0  0  0  0
    2.1486   -0.0000    0.0000 C   0  0  0  0  0  0  0  0  0  0  0  0
    1.4324    0.4135    0.0000 C   0  0  0  0  0  0  0  0  0  0  0  0
    0.7162    0.0000    0.0000 C   0  0  0  0  0  0  0  0  0  0  0  0
    0.7162   -0.8270    0.0000 N   0  0  0  0  0  0  0  0  0  0  0  0
    0.0000   -1.2405    0.0000 C   0  0  0  0  0  0  0  0  0  0  0  0
    1.4324   -1.2405    0.0000 C   0  0  0  0  0  0  0  0  0  0  0  0
    2.1486   -0.8270    0.0000 C   0  0  0  0  0  0  0  0  0  0  0  0
  1  2  1  0  0  0
  2  7  1  0  0  0
  2  3  2  0  0  0
  3  4  1  0  0  0
  4  5  2  0  0  0
  5  6  1  0  0  0
  6  7  2  0  0  0
  7  8  1  0  0  0
  8  9  1  0  0  0
  9 10  2  0  0  0
  9 11  1  0  0  0
 11 12  1  0  0  0
 11 13  1  0  0  0
 13 19  1  0  0  0
 13 14  1  0  0  0
 14 15  1  0  0  0
 15 16  1  0  0  0
 16 17  1  0  0  0
 16 18  1  0  0  0
 18 19  1  0  0  0
M  END
>  <Entry>
423

>  <title>
3-6215

>  <rigid docking scores>
-16.1091

>  <InChIKey>
SMMLIHVQHLIAEC-UHFFFAOYSA-N

>  <ZINC>
ZINC000004820432

>  <eMolecules>
2270363

>  <Pubchem>
2982158

>  <Mcule>
MCULE-6668108295

>  <MolPort>
MolPort-002-098-956

$$$$
atoms 20 bonds 22
dotmatics
mol io
 20 22  0  0  0  0  0  0  0  0999 V2000
    7.1658    1.4494    0.0000 C   0  0  0  0  0  0  0  0  0  0  0  0
    6.4499    1.0353    0.0000 N   0  0  0  0  0  0  0  0  0  0  0  0
    6.4499    0.2071    0.0000 C   0  0  0  0  0  0  0  0  0  0  0  0
    5.7341   -0.2071    0.0000 C   0  0  0  0  0  0  0  0  0  0  0  0
    5.0123    0.2071    0.0000 C   0  0  0  0  0  0  0  0  0  0  0  0
    4.2965   -0.2071    0.0000 C   0  0  0  0  0  0  0  0  0  0  0  0
    3.5807    0.2071    0.0000 C   0  0  0  0  0  0  0  0  0  0  0  0
    2.8648   -0.2071    0.0000 C   0  0  0  0  0  0  0  0  0  0  0  0
    2.8655   -1.0341    0.0000 O   0  0  0  0  0  0  0  0  0  0  0  0
    2.1482    0.2058    0.0000 N   0  0  0  0  0  0  0  0  0  0  0  0
    1.4324   -0.2083    0.0000 C   0  0  0  0  0  0  0  0  0  0  0  0
    1.4331   -1.0353    0.0000 C   0  0  0  0  0  0  0  0  0  0  0  0
    0.7173   -1.4494    0.0000 C   0  0  0  0  0  0  0  0  0  0  0  0
    0.0007   -1.0366    0.0000 C   0  0  0  0  0  0  0  0  0  0  0  0
    0.0000   -0.2096    0.0000 N   0  0  0  0  0  0  0  0  0  0  0  0
    0.7158    0.2046    0.0000 C   0  0  0  0  0  0  0  0  0  0  0  0
    3.5807    1.0353    0.0000 C   0  0  0  0  0  0  0  0  0  0  0  0
    4.2965    1.4494    0.0000 C   0  0  0  0  0  0  0  0  0  0  0  0
    5.0123    1.0353    0.0000 C   0  0  0  0  0  0  0  0  0  0  0  0
    5.7341    1.4494    0.0000 C   0  0  0  0  0  0  0  0  0  0  0  0
  1  2  1  0  0  0
  2 20  1  0  0  0
  2  3  1  0  0  0
  3  4  1  0  0  0
  4  5  1  0  0  0
  5 19  1  0  0  0
  5  6  2  0  0  0
  6  7  1  0  0  0
  7  8  1  0  0  0
  8  9  2  0  0  0
  8 10  1  0  0  0
 10 11  1  0  0  0
 11 16  1  0  0  0
 11 12  2  0  0  0
 12 13  1  0  0  0
 13 14  2  0  0  0
 14 15  1  0  0  0
 15 16  2  0  0  0
  7 17  2  0  0  0
 17 18  1  0  0  0
 18 19  2  0  0  0
 19 20  1  0  0  0
M  END
>  <Entry>
424

>  <title>
3-7077

>  <rigid docking scores>
-16.1363

>  <InChIKey>
JOGZSPUIPSITSB-UHFFFAOYSA-N

$$$$
atoms 21 bonds 23
dotmatics
mol io
 21 23  0  0  0  0  0  0  0  0999 V2000
    4.9682   -1.9382    0.0000 C   0  0  0  0  0  0  0  0  0  0  0  0
    4.1412   -1.9382    0.0000 C   0  0  0  0  0  0  0  0  0  0  0  0
    3.7271   -1.2224    0.0000 C   0  0  0  0  0  0  0  0  0  0  0  0
    2.8989   -1.2224    0.0000 C   0  0  0  0  0  0  0  0  0  0  0  0
    2.4847   -1.9382    0.0000 C   0  0  0  0  0  0  0  0  0  0  0  0
    1.6565   -1.9382    0.0000 C   0  0  0  0  0  0  0  0  0  0  0  0
    1.2424   -2.6541    0.0000 C   0  0  0  0  0  0  0  0  0  0  0  0
    0.4141   -2.6541    0.0000 C   0  0  0  0  0  0  0  0  0  0  0  0
    0.0000   -1.9382    0.0000 C   0  0  0  0  0  0  0  0  0  0  0  0
    0.4141   -1.2224    0.0000 C   0  0  0  0  0  0  0  0  0  0  0  0
    1.2424   -1.2224    0.0000 C   0  0  0  0  0  0  0  0  0  0  0  0
    1.6565   -0.5065    0.0000 N   0  0  0  0  0  0  0  0  0  0  0  0
    1.2436    0.2100    0.0000 C   0  0  0  0  0  0  0  0  0  0  0  0
    0.4166    0.2107    0.0000 O   0  0  0  0  0  0  0  0  0  0  0  0
    1.6577    0.9259    0.0000 N   0  0  0  0  0  0  0  0  0  0  0  0
    1.4444    1.7249    0.0000 C   0  0  0  0  0  0  0  0  0  0  0  0
    2.2434    1.9382    0.0000 C   0  0  0  0  0  0  0  0  0  0  0  0
    2.6575    2.6541    0.0000 N   0  0  0  0  0  0  0  0  0  0  0  0
    2.4567    1.1392    0.0000 C   0  0  0  0  0  0  0  0  0  0  0  0
    2.8989   -2.6541    0.0000 C   0  0  0  0  0  0  0  0  0  0  0  0
    3.7271   -2.6541    0.0000 C   0  0  0  0  0  0  0  0  0  0  0  0
  1  2  1  0  0  0
  2 21  1  0  0  0
  2  3  2  0  0  0
  3  4  1  0  0  0
  4  5  2  0  0  0
  5  6  1  0  0  0
  6 11  1  0  0  0
  6  7  2  0  0  0
  7  8  1  0  0  0
  8  9  2  0  0  0
  9 10  1  0  0  0
 10 11  2  0  0  0
 11 12  1  0  0  0
 12 13  1  0  0  0
 13 14  2  0  0  0
 13 15  1  0  0  0
 15 19  1  0  0  0
 15 16  1  0  0  0
 16 17  1  0  0  0
 17 18  1  0  0  0
 17 19  1  0  0  0
  5 20  1  0  0  0
 20 21  2  0  0  0
M  END
>  <Entry>
425

>  <title>
3-7631

>  <rigid docking scores>
-15.6966

>  <InChIKey>
VIHJACYTWGZEDE-UHFFFAOYSA-N

$$$$
atoms 21 bonds 22
dotmatics
mol io
 21 22  0  0  0  0  0  0  0  0999 V2000
   -0.2068    0.7162    0.0000 O   0  0  0  0  0  0  0  0  0  0  0  0
    0.2068    1.4324    0.0000 C   0  0  0  0  0  0  0  0  0  0  0  0
    1.0338    1.4324    0.0000 C   0  0  0  0  0  0  0  0  0  0  0  0
    1.4473    0.7162    0.0000 C   0  0  0  0  0  0  0  0  0  0  0  0
    2.2743    0.7162    0.0000 C   0  0  0  0  0  0  0  0  0  0  0  0
    2.6878    1.4324    0.0000 C   0  0  0  0  0  0  0  0  0  0  0  0
    3.5148    1.4324    0.0000 C   0  0  0  0  0  0  0  0  0  0  0  0
    3.9283    0.7162    0.0000 C   0  0  0  0  0  0  0  0  0  0  0  0
    4.7552    0.7162    0.0000 F   0  0  0  0  0  0  0  0  0  0  0  0
    3.5148   -0.0000    0.0000 C   0  0  0  0  0  0  0  0  0  0  0  0
    2.6878   -0.0000    0.0000 C   0  0  0  0  0  0  0  0  0  0  0  0
   -0.2068    2.1486    0.0000 N   0  0  0  0  0  0  0  0  0  0  0  0
   -1.0338    2.1486    0.0000 C   0  0  0  0  0  0  0  0  0  0  0  0
   -1.4473    2.8648    0.0000 C   0  0  0  0  0  0  0  0  0  0  0  0
   -2.2743    2.8648    0.0000 C   0  0  0  0  0  0  0  0  0  0  0  0
   -2.6878    2.1486    0.0000 C   0  0  0  0  0  0  0  0  0  0  0  0
   -3.5148    2.1486    0.0000 C   0  0  0  0  0  0  0  0  0  0  0  0
   -3.9283    2.8648    0.0000 C   0  0  0  0  0  0  0  0  0  0  0  0
   -4.7552    2.8648    0.0000 O   0  0  0  0  0  0  0  0  0  0  0  0
   -3.5148    3.5810    0.0000 C   0  0  0  0  0  0  0  0  0  0  0  0
   -2.6878    3.5810    0.0000 C   0  0  0  0  0  0  0  0  0  0  0  0
  1  2  2  0  0  0
  2  3  1  0  0  0
  3  4  2  0  0  0
  4  5  1  0  0  0
  5 11  1  0  0  0
  5  6  2  0  0  0
  6  7  1  0  0  0
  7  8  2  0  0  0
  8  9  1  0  0  0
  8 10  1  0  0  0
 10 11  2  0  0  0
  2 12  1  0  0  0
 12 13  1  0  0  0
 13 14  1  0  0  0
 14 15  1  0  0  0
 15 21  1  0  0  0
 15 16  2  0  0  0
 16 17  1  0  0  0
 17 18  2  0  0  0
 18 19  1  0  0  0
 18 20  1  0  0  0
 20 21  2  0  0  0
M  END
>  <Entry>
426

>  <title>
3-7697

>  <rigid docking scores>
-16.4046

>  <InChIKey>
TUAKANOBSSPUSL-BJMVGYQFSA-N

>  <Pubchem>
61017912

$$$$
atoms 22 bonds 24
dotmatics
mol io
 22 24  0  0  0  0  0  0  0  0999 V2000
    3.7284    1.0745    0.0000 C   0  0  0  0  0  0  0  0  0  0  0  0
    4.1412    0.3579    0.0000 N   0  0  0  0  0  0  0  0  0  0  0  0
    4.9682    0.3572    0.0000 C   0  0  0  0  0  0  0  0  0  0  0  0
    5.3824    1.0730    0.0000 C   0  0  0  0  0  0  0  0  0  0  0  0
    4.9695    1.7896    0.0000 C   0  0  0  0  0  0  0  0  0  0  0  0
    5.3836    2.5054    0.0000 C   0  0  0  0  0  0  0  0  0  0  0  0
    6.2106    2.5047    0.0000 C   0  0  0  0  0  0  0  0  0  0  0  0
    6.6235    1.7882    0.0000 C   0  0  0  0  0  0  0  0  0  0  0  0
    6.2094    1.0723    0.0000 C   0  0  0  0  0  0  0  0  0  0  0  0
    3.7271   -0.3579    0.0000 C   0  0  0  0  0  0  0  0  0  0  0  0
    4.1412   -1.0738    0.0000 C   0  0  0  0  0  0  0  0  0  0  0  0
    3.7271   -1.7896    0.0000 C   0  0  0  0  0  0  0  0  0  0  0  0
    4.1412   -2.5054    0.0000 O   0  0  0  0  0  0  0  0  0  0  0  0
    2.8989   -1.7896    0.0000 N   0  0  0  0  0  0  0  0  0  0  0  0
    2.4847   -1.0738    0.0000 C   0  0  0  0  0  0  0  0  0  0  0  0
    1.6565   -1.0738    0.0000 C   0  0  0  0  0  0  0  0  0  0  0  0
    1.2424   -1.7896    0.0000 C   0  0  0  0  0  0  0  0  0  0  0  0
    0.4141   -1.7896    0.0000 C   0  0  0  0  0  0  0  0  0  0  0  0
    0.0000   -1.0738    0.0000 N   0  0  0  0  0  0  0  0  0  0  0  0
    0.4141   -0.3579    0.0000 C   0  0  0  0  0  0  0  0  0  0  0  0
    1.2424   -0.3579    0.0000 C   0  0  0  0  0  0  0  0  0  0  0  0
    2.8989   -0.3579    0.0000 N   0  0  0  0  0  0  0  0  0  0  0  0
  1  2  1  0  0  0
  2  3  1  0  0  0
  3  4  1  0  0  0
  4  9  1  0  0  0
  4  5  2  0  0  0
  5  6  1  0  0  0
  6  7  2  0  0  0
  7  8  1  0  0  0
  8  9  2  0  0  0
  2 10  1  0  0  0
 10 22  1  0  0  0
 10 11  2  0  0  0
 11 12  1  0  0  0
 12 13  2  0  0  0
 12 14  1  0  0  0
 14 15  1  0  0  0
 15 16  1  0  0  0
 16 21  1  0  0  0
 16 17  2  0  0  0
 17 18  1  0  0  0
 18 19  2  0  0  0
 19 20  1  0  0  0
 20 21  2  0  0  0
 15 22  2  0  0  0
M  END
>  <Entry>
427

>  <title>
3-7709

>  <rigid docking scores>
-15.3952

>  <InChIKey>
KXPTTYNTOMWPRG-UHFFFAOYSA-N

$$$$
atoms 22 bonds 24
dotmatics
mol io
 22 24  0  0  0  0  0  0  0  0999 V2000
    5.0168    1.2424    0.0000 O   0  0  0  0  0  0  0  0  0  0  0  0
    5.0175    0.4154    0.0000 C   0  0  0  0  0  0  0  0  0  0  0  0
    5.7341    0.0025    0.0000 N   0  0  0  0  0  0  0  0  0  0  0  0
    6.4499    0.4166    0.0000 C   0  0  0  0  0  0  0  0  0  0  0  0
    7.1665    0.0037    0.0000 C   0  0  0  0  0  0  0  0  0  0  0  0
    7.8823    0.4179    0.0000 C   0  0  0  0  0  0  0  0  0  0  0  0
    8.5989    0.0050    0.0000 C   0  0  0  0  0  0  0  0  0  0  0  0
    8.5996   -0.8220    0.0000 C   0  0  0  0  0  0  0  0  0  0  0  0
    7.8838   -1.2361    0.0000 C   0  0  0  0  0  0  0  0  0  0  0  0
    7.1672   -0.8233    0.0000 C   0  0  0  0  0  0  0  0  0  0  0  0
    4.3017    0.0012    0.0000 N   0  0  0  0  0  0  0  0  0  0  0  0
    3.5851    0.4141    0.0000 C   0  0  0  0  0  0  0  0  0  0  0  0
    2.8693    0.0000    0.0000 C   0  0  0  0  0  0  0  0  0  0  0  0
    2.8693   -0.8282    0.0000 C   0  0  0  0  0  0  0  0  0  0  0  0
    2.1534   -1.2424    0.0000 O   0  0  0  0  0  0  0  0  0  0  0  0
    1.4317   -0.8282    0.0000 C   0  0  0  0  0  0  0  0  0  0  0  0
    0.7158   -1.2424    0.0000 C   0  0  0  0  0  0  0  0  0  0  0  0
    0.0000   -0.8282    0.0000 C   0  0  0  0  0  0  0  0  0  0  0  0
    0.0000    0.0000    0.0000 C   0  0  0  0  0  0  0  0  0  0  0  0
    0.7158    0.4141    0.0000 C   0  0  0  0  0  0  0  0  0  0  0  0
    1.4317    0.0000    0.0000 C   0  0  0  0  0  0  0  0  0  0  0  0
    2.1534    0.4141    0.0000 C   0  0  0  0  0  0  0  0  0  0  0  0
  1  2  2  0  0  0
  2  3  1  0  0  0
  3  4  1  0  0  0
  4  5  1  0  0  0
  5 10  1  0  0  0
  5  6  2  0  0  0
  6  7  1  0  0  0
  7  8  2  0  0  0
  8  9  1  0  0  0
  9 10  2  0  0  0
  2 11  1  0  0  0
 11 12  1  0  0  0
 12 13  1  0  0  0
 13 22  1  0  0  0
 13 14  1  0  0  0
 14 15  1  0  0  0
 15 16  1  0  0  0
 16 21  1  0  0  0
 16 17  2  0  0  0
 17 18  1  0  0  0
 18 19  2  0  0  0
 19 20  1  0  0  0
 20 21  2  0  0  0
 21 22  1  0  0  0
M  END
>  <Entry>
428

>  <title>
3-8035

>  <rigid docking scores>
-15.9078

>  <InChIKey>
UOVPHUBSFAJHNM-UHFFFAOYSA-N

>  <eMolecules>
31348559

>  <Pubchem>
47012959

>  <Mcule>
MCULE-5456131624

>  <MolPort>
MolPort-009-138-773

$$$$
atoms 21 bonds 23
dotmatics
mol io
 21 23  0  0  0  0  0  0  0  0999 V2000
    6.8641    0.5057    0.0000 C   0  0  0  0  0  0  0  0  0  0  0  0
    6.4499   -0.2102    0.0000 S   0  0  0  0  0  0  0  0  0  0  0  0
    7.1658   -0.6243    0.0000 O   0  0  0  0  0  0  0  0  0  0  0  0
    6.0358   -0.9260    0.0000 O   0  0  0  0  0  0  0  0  0  0  0  0
    5.7341    0.2039    0.0000 N   0  0  0  0  0  0  0  0  0  0  0  0
    5.0175   -0.2089    0.0000 C   0  0  0  0  0  0  0  0  0  0  0  0
    5.0168   -1.0359    0.0000 C   0  0  0  0  0  0  0  0  0  0  0  0
    4.3003   -1.4488    0.0000 C   0  0  0  0  0  0  0  0  0  0  0  0
    3.5844   -1.0347    0.0000 C   0  0  0  0  0  0  0  0  0  0  0  0
    3.5851   -0.2077    0.0000 C   0  0  0  0  0  0  0  0  0  0  0  0
    2.8693    0.2064    0.0000 C   0  0  0  0  0  0  0  0  0  0  0  0
    2.8693    1.0347    0.0000 C   0  0  0  0  0  0  0  0  0  0  0  0
    2.1534    1.4488    0.0000 N   0  0  0  0  0  0  0  0  0  0  0  0
    1.4317    1.0347    0.0000 C   0  0  0  0  0  0  0  0  0  0  0  0
    0.7158    1.4488    0.0000 C   0  0  0  0  0  0  0  0  0  0  0  0
    0.0000    1.0347    0.0000 C   0  0  0  0  0  0  0  0  0  0  0  0
    0.0000    0.2064    0.0000 C   0  0  0  0  0  0  0  0  0  0  0  0
    0.7158   -0.2077    0.0000 C   0  0  0  0  0  0  0  0  0  0  0  0
    1.4317    0.2064    0.0000 C   0  0  0  0  0  0  0  0  0  0  0  0
    2.1534   -0.2077    0.0000 N   0  0  0  0  0  0  0  0  0  0  0  0
    4.3017    0.2052    0.0000 C   0  0  0  0  0  0  0  0  0  0  0  0
  1  2  1  0  0  0
  2  3  2  0  0  0
  2  4  2  0  0  0
  2  5  1  0  0  0
  5  6  1  0  0  0
  6 21  1  0  0  0
  6  7  2  0  0  0
  7  8  1  0  0  0
  8  9  2  0  0  0
  9 10  1  0  0  0
 10 11  1  0  0  0
 11 20  1  0  0  0
 11 12  2  0  0  0
 12 13  1  0  0  0
 13 14  2  0  0  0
 14 19  1  0  0  0
 14 15  1  0  0  0
 15 16  2  0  0  0
 16 17  1  0  0  0
 17 18  2  0  0  0
 18 19  1  0  0  0
 19 20  2  0  0  0
 10 21  2  0  0  0
M  END
>  <Entry>
429

>  <title>
3-8060

>  <rigid docking scores>
-20.6704

>  <InChIKey>
WCXZAWHWAGELNN-UHFFFAOYSA-N

>  <ChEMBL>
CHEMBL1553519

>  <ZINC>
ZINC000001399325

>  <eMolecules>
36800790

>  <SureChEMBL Patents>
SCHEMBL1463425

>  <Pubchem>
1485426

>  <Mcule>
MCULE-3207290219

>  <MolPort>
MolPort-002-878-693

$$$$
atoms 22 bonds 24
dotmatics
mol io
 22 24  0  0  0  0  0  0  0  0999 V2000
    6.5173    1.7377    0.0000 C   0  0  0  0  0  0  0  0  0  0  0  0
    6.5173    0.9107    0.0000 C   0  0  0  0  0  0  0  0  0  0  0  0
    7.2335    0.4972    0.0000 C   0  0  0  0  0  0  0  0  0  0  0  0
    7.2335   -0.3298    0.0000 C   0  0  0  0  0  0  0  0  0  0  0  0
    6.5173   -0.7433    0.0000 C   0  0  0  0  0  0  0  0  0  0  0  0
    6.5173   -1.5703    0.0000 C   0  0  0  0  0  0  0  0  0  0  0  0
    5.8011   -0.3298    0.0000 C   0  0  0  0  0  0  0  0  0  0  0  0
    5.0849   -0.7433    0.0000 C   0  0  0  0  0  0  0  0  0  0  0  0
    4.9984   -1.5658    0.0000 N   0  0  0  0  0  0  0  0  0  0  0  0
    4.1895   -1.7377    0.0000 O   0  0  0  0  0  0  0  0  0  0  0  0
    3.7760   -1.0215    0.0000 C   0  0  0  0  0  0  0  0  0  0  0  0
    2.9535   -0.9351    0.0000 N   0  0  0  0  0  0  0  0  0  0  0  0
    2.4674   -1.6041    0.0000 C   0  0  0  0  0  0  0  0  0  0  0  0
    1.6449   -1.5177    0.0000 C   0  0  0  0  0  0  0  0  0  0  0  0
    1.3086   -0.7622    0.0000 C   0  0  0  0  0  0  0  0  0  0  0  0
    0.4861   -0.6757    0.0000 C   0  0  0  0  0  0  0  0  0  0  0  0
    0.1497    0.0798    0.0000 N   0  0  0  0  0  0  0  0  0  0  0  0
    0.0000   -1.3448    0.0000 O   0  0  0  0  0  0  0  0  0  0  0  0
    1.7947   -0.0931    0.0000 C   0  0  0  0  0  0  0  0  0  0  0  0
    2.6171   -0.1796    0.0000 C   0  0  0  0  0  0  0  0  0  0  0  0
    4.3293   -0.4069    0.0000 N   0  0  0  0  0  0  0  0  0  0  0  0
    5.8011    0.4972    0.0000 C   0  0  0  0  0  0  0  0  0  0  0  0
  1  2  1  0  0  0
  2 22  1  0  0  0
  2  3  2  0  0  0
  3  4  1  0  0  0
  4  5  2  0  0  0
  5  6  1  0  0  0
  5  7  1  0  0  0
  7  8  1  0  0  0
  8 21  1  0  0  0
  8  9  2  0  0  0
  9 10  1  0  0  0
 10 11  1  0  0  0
 11 12  1  0  0  0
 12 20  1  0  0  0
 12 13  1  0  0  0
 13 14  1  0  0  0
 14 15  1  0  0  0
 15 16  1  0  0  0
 16 17  1  0  0  0
 16 18  2  0  0  0
 15 19  1  0  0  0
 19 20  1  0  0  0
 11 21  2  0  0  0
  7 22  2  0  0  0
M  END
>  <Entry>
430

>  <title>
1-2790

>  <rigid docking scores>
-17.304

>  <InChIKey>
AXAKBCBFCBVCLC-UHFFFAOYSA-N

$$$$
atoms 22 bonds 24
dotmatics
mol io
 22 24  0  0  0  0  0  0  0  0999 V2000
    7.4492    1.0705    0.0000 C   0  0  0  0  0  0  0  0  0  0  0  0
    6.6222    1.0712    0.0000 N   0  0  0  0  0  0  0  0  0  0  0  0
    6.2081    0.3554    0.0000 C   0  0  0  0  0  0  0  0  0  0  0  0
    5.3811    0.3561    0.0000 C   0  0  0  0  0  0  0  0  0  0  0  0
    4.9682    1.0727    0.0000 N   0  0  0  0  0  0  0  0  0  0  0  0
    4.1412    1.0734    0.0000 C   0  0  0  0  0  0  0  0  0  0  0  0
    3.7284    1.7900    0.0000 O   0  0  0  0  0  0  0  0  0  0  0  0
    3.7271    0.3576    0.0000 C   0  0  0  0  0  0  0  0  0  0  0  0
    4.1412   -0.3583    0.0000 C   0  0  0  0  0  0  0  0  0  0  0  0
    3.7271   -1.0741    0.0000 C   0  0  0  0  0  0  0  0  0  0  0  0
    2.8989   -1.0741    0.0000 C   0  0  0  0  0  0  0  0  0  0  0  0
    2.4847   -1.7900    0.0000 O   0  0  0  0  0  0  0  0  0  0  0  0
    2.4847   -0.3583    0.0000 C   0  0  0  0  0  0  0  0  0  0  0  0
    1.6565   -0.3583    0.0000 C   0  0  0  0  0  0  0  0  0  0  0  0
    1.2424   -1.0741    0.0000 C   0  0  0  0  0  0  0  0  0  0  0  0
    0.4141   -1.0741    0.0000 C   0  0  0  0  0  0  0  0  0  0  0  0
    0.0000   -0.3583    0.0000 C   0  0  0  0  0  0  0  0  0  0  0  0
    0.4141    0.3576    0.0000 C   0  0  0  0  0  0  0  0  0  0  0  0
    1.2424    0.3576    0.0000 C   0  0  0  0  0  0  0  0  0  0  0  0
    2.8989    0.3576    0.0000 C   0  0  0  0  0  0  0  0  0  0  0  0
    5.3824    1.7885    0.0000 C   0  0  0  0  0  0  0  0  0  0  0  0
    6.2094    1.7878    0.0000 C   0  0  0  0  0  0  0  0  0  0  0  0
  1  2  1  0  0  0
  2 22  1  0  0  0
  2  3  1  0  0  0
  3  4  1  0  0  0
  4  5  1  0  0  0
  5  6  1  0  0  0
  6  7  2  0  0  0
  6  8  1  0  0  0
  8 20  1  0  0  0
  8  9  2  0  0  0
  9 10  1  0  0  0
 10 11  2  0  0  0
 11 12  1  0  0  0
 11 13  1  0  0  0
 13 14  1  0  0  0
 14 19  1  0  0  0
 14 15  2  0  0  0
 15 16  1  0  0  0
 16 17  2  0  0  0
 17 18  1  0  0  0
 18 19  2  0  0  0
 13 20  2  0  0  0
  5 21  1  0  0  0
 21 22  1  0  0  0
M  END
>  <Entry>
431

>  <title>
3-9156

>  <rigid docking scores>
-19.3279

>  <InChIKey>
IAVBPNFUGNXXHF-UHFFFAOYSA-N

$$$$
atoms 23 bonds 26
dotmatics
mol io
 23 26  0  0  0  0  0  0  0  0999 V2000
    2.8678   -1.7098    0.0000 O   0  0  0  0  0  0  0  0  0  0  0  0
    3.5844   -1.2970    0.0000 C   0  0  0  0  0  0  0  0  0  0  0  0
    3.5851   -0.4700    0.0000 N   0  0  0  0  0  0  0  0  0  0  0  0
    2.8693   -0.0558    0.0000 N   0  0  0  0  0  0  0  0  0  0  0  0
    2.8693    0.7724    0.0000 C   0  0  0  0  0  0  0  0  0  0  0  0
    3.5851    1.1865    0.0000 C   0  0  0  0  0  0  0  0  0  0  0  0
    4.3017    0.7737    0.0000 C   0  0  0  0  0  0  0  0  0  0  0  0
    5.0175    1.1878    0.0000 C   0  0  0  0  0  0  0  0  0  0  0  0
    5.0168    2.0148    0.0000 C   0  0  0  0  0  0  0  0  0  0  0  0
    4.3003    2.4277    0.0000 C   0  0  0  0  0  0  0  0  0  0  0  0
    3.5844    2.0135    0.0000 C   0  0  0  0  0  0  0  0  0  0  0  0
    2.1534    1.1865    0.0000 N   0  0  0  0  0  0  0  0  0  0  0  0
    1.4317    0.7724    0.0000 C   0  0  0  0  0  0  0  0  0  0  0  0
    0.7158    1.1865    0.0000 C   0  0  0  0  0  0  0  0  0  0  0  0
    0.0000    0.7724    0.0000 C   0  0  0  0  0  0  0  0  0  0  0  0
    0.0000   -0.0558    0.0000 C   0  0  0  0  0  0  0  0  0  0  0  0
    0.7158   -0.4700    0.0000 C   0  0  0  0  0  0  0  0  0  0  0  0
    1.4317   -0.0558    0.0000 C   0  0  0  0  0  0  0  0  0  0  0  0
    2.1534   -0.4700    0.0000 C   0  0  0  0  0  0  0  0  0  0  0  0
    2.1594   -1.2969    0.0000 O   0  0  0  0  0  0  0  0  0  0  0  0
    4.3003   -1.7111    0.0000 C   0  0  0  0  0  0  0  0  0  0  0  0
    4.7131   -2.4277    0.0000 C   0  0  0  0  0  0  0  0  0  0  0  0
    5.1273   -1.7118    0.0000 C   0  0  0  0  0  0  0  0  0  0  0  0
  1  2  2  0  0  0
  2  3  1  0  0  0
  3  4  1  0  0  0
  4 19  1  0  0  0
  4  5  1  0  0  0
  5  6  1  0  0  0
  6 11  1  0  0  0
  6  7  2  0  0  0
  7  8  1  0  0  0
  8  9  2  0  0  0
  9 10  1  0  0  0
 10 11  2  0  0  0
  5 12  2  0  0  0
 12 13  1  0  0  0
 13 18  1  0  0  0
 13 14  2  0  0  0
 14 15  1  0  0  0
 15 16  2  0  0  0
 16 17  1  0  0  0
 17 18  2  0  0  0
 18 19  1  0  0  0
 19 20  2  0  0  0
  2 21  1  0  0  0
 21 23  1  0  0  0
 21 22  1  0  0  0
 22 23  1  0  0  0
M  END
>  <Entry>
432

>  <title>
3-9258

>  <rigid docking scores>
-20.4327

>  <InChIKey>
FTCRWIDRPUYVBJ-UHFFFAOYSA-N

$$$$
atoms 20 bonds 22
dotmatics
mol io
 20 22  0  0  0  0  0  0  0  0999 V2000
   -2.8391    3.5637    0.0000 C   0  0  0  0  0  0  0  0  0  0  0  0
   -2.0121    3.5637    0.0000 C   0  0  0  0  0  0  0  0  0  0  0  0
   -1.5986    4.2800    0.0000 C   0  0  0  0  0  0  0  0  0  0  0  0
   -0.7716    4.2800    0.0000 C   0  0  0  0  0  0  0  0  0  0  0  0
   -0.3581    3.5637    0.0000 C   0  0  0  0  0  0  0  0  0  0  0  0
    0.4689    3.5637    0.0000 N   0  0  0  0  0  0  0  0  0  0  0  0
    0.8824    4.2800    0.0000 C   0  0  0  0  0  0  0  0  0  0  0  0
    0.4689    4.9962    0.0000 O   0  0  0  0  0  0  0  0  0  0  0  0
    1.7094    4.2800    0.0000 C   0  0  0  0  0  0  0  0  0  0  0  0
    2.4256    3.8665    0.0000 C   0  0  0  0  0  0  0  0  0  0  0  0
    2.4256    4.6935    0.0000 C   0  0  0  0  0  0  0  0  0  0  0  0
    2.8391    5.4097    0.0000 C   0  0  0  0  0  0  0  0  0  0  0  0
   -0.7716    2.8475    0.0000 C   0  0  0  0  0  0  0  0  0  0  0  0
   -0.3581    2.1313    0.0000 C   0  0  0  0  0  0  0  0  0  0  0  0
   -0.6945    1.3758    0.0000 N   0  0  0  0  0  0  0  0  0  0  0  0
   -0.0799    0.8225    0.0000 C   0  0  0  0  0  0  0  0  0  0  0  0
   -0.1663    0.0000    0.0000 C   0  0  0  0  0  0  0  0  0  0  0  0
    0.6363    1.2360    0.0000 N   0  0  0  0  0  0  0  0  0  0  0  0
    0.4644    2.0449    0.0000 O   0  0  0  0  0  0  0  0  0  0  0  0
   -1.5986    2.8475    0.0000 C   0  0  0  0  0  0  0  0  0  0  0  0
  1  2  1  0  0  0
  2 20  1  0  0  0
  2  3  2  0  0  0
  3  4  1  0  0  0
  4  5  2  0  0  0
  5  6  1  0  0  0
  6  7  1  0  0  0
  7  8  2  0  0  0
  7  9  1  0  0  0
  9 11  1  0  0  0
  9 10  1  0  0  0
 10 11  1  0  0  0
 11 12  1  0  0  0
  5 13  1  0  0  0
 13 14  1  0  0  0
 14 19  1  0  0  0
 14 15  2  0  0  0
 15 16  1  0  0  0
 16 17  1  0  0  0
 16 18  2  0  0  0
 18 19  1  0  0  0
 13 20  2  0  0  0
M  END
>  <Entry>
433

>  <title>
1-2865

>  <rigid docking scores>
-19.6868

>  <InChIKey>
FQSLQKRDWOCVCQ-UHFFFAOYSA-N

$$$$
atoms 20 bonds 22
dotmatics
mol io
 20 22  0  0  0  0  0  0  0  0999 V2000
   -3.0777    4.5392    0.0000 C   0  0  0  0  0  0  0  0  0  0  0  0
   -2.6642    3.8230    0.0000 C   0  0  0  0  0  0  0  0  0  0  0  0
   -3.0777    3.1068    0.0000 O   0  0  0  0  0  0  0  0  0  0  0  0
   -1.8372    3.8230    0.0000 N   0  0  0  0  0  0  0  0  0  0  0  0
   -1.4237    4.5392    0.0000 C   0  0  0  0  0  0  0  0  0  0  0  0
   -0.5967    4.5392    0.0000 C   0  0  0  0  0  0  0  0  0  0  0  0
   -0.1832    3.8230    0.0000 C   0  0  0  0  0  0  0  0  0  0  0  0
   -0.5967    3.1068    0.0000 C   0  0  0  0  0  0  0  0  0  0  0  0
   -0.1832    2.3906    0.0000 C   0  0  0  0  0  0  0  0  0  0  0  0
    0.6393    2.3041    0.0000 N   0  0  0  0  0  0  0  0  0  0  0  0
    0.8112    1.4952    0.0000 C   0  0  0  0  0  0  0  0  0  0  0  0
    1.5667    1.1588    0.0000 C   0  0  0  0  0  0  0  0  0  0  0  0
    2.2358    1.6449    0.0000 C   0  0  0  0  0  0  0  0  0  0  0  0
    2.9913    1.3086    0.0000 C   0  0  0  0  0  0  0  0  0  0  0  0
    3.0777    0.4861    0.0000 C   0  0  0  0  0  0  0  0  0  0  0  0
    2.4087   -0.0000    0.0000 N   0  0  0  0  0  0  0  0  0  0  0  0
    1.6532    0.3364    0.0000 C   0  0  0  0  0  0  0  0  0  0  0  0
    0.0950    1.0817    0.0000 N   0  0  0  0  0  0  0  0  0  0  0  0
   -0.5196    1.6351    0.0000 O   0  0  0  0  0  0  0  0  0  0  0  0
   -1.4237    3.1068    0.0000 C   0  0  0  0  0  0  0  0  0  0  0  0
  1  2  1  0  0  0
  2  3  2  0  0  0
  2  4  1  0  0  0
  4 20  1  0  0  0
  4  5  1  0  0  0
  5  6  1  0  0  0
  6  7  1  0  0  0
  7  8  1  0  0  0
  8  9  1  0  0  0
  9 19  1  0  0  0
  9 10  2  0  0  0
 10 11  1  0  0  0
 11 12  1  0  0  0
 12 17  1  0  0  0
 12 13  2  0  0  0
 13 14  1  0  0  0
 14 15  2  0  0  0
 15 16  1  0  0  0
 16 17  2  0  0  0
 11 18  2  0  0  0
 18 19  1  0  0  0
  8 20  1  0  0  0
M  END
>  <Entry>
434

>  <title>
3-9743

>  <rigid docking scores>
-17.7323

>  <InChIKey>
LUOUFQGKXGQYPP-UHFFFAOYSA-N

$$$$
atoms 21 bonds 22
dotmatics
mol io
 21 22  0  0  0  0  0  0  0  0999 V2000
    6.7003    3.1773    0.0000 C   0  0  0  0  0  0  0  0  0  0  0  0
    5.9841    2.7638    0.0000 C   0  0  0  0  0  0  0  0  0  0  0  0
    5.9841    1.9368    0.0000 C   0  0  0  0  0  0  0  0  0  0  0  0
    6.6532    1.4507    0.0000 N   0  0  0  0  0  0  0  0  0  0  0  0
    6.3976    0.6642    0.0000 N   0  0  0  0  0  0  0  0  0  0  0  0
    5.5706    0.6642    0.0000 C   0  0  0  0  0  0  0  0  0  0  0  0
    5.0845   -0.0049    0.0000 N   0  0  0  0  0  0  0  0  0  0  0  0
    4.2621    0.0816    0.0000 C   0  0  0  0  0  0  0  0  0  0  0  0
    3.9257    0.8371    0.0000 O   0  0  0  0  0  0  0  0  0  0  0  0
    3.7760   -0.5875    0.0000 C   0  0  0  0  0  0  0  0  0  0  0  0
    2.9535   -0.5011    0.0000 C   0  0  0  0  0  0  0  0  0  0  0  0
    2.4674   -1.1701    0.0000 C   0  0  0  0  0  0  0  0  0  0  0  0
    2.8038   -1.9256    0.0000 C   0  0  0  0  0  0  0  0  0  0  0  0
    2.3177   -2.5947    0.0000 C   0  0  0  0  0  0  0  0  0  0  0  0
    1.4952   -2.5082    0.0000 C   0  0  0  0  0  0  0  0  0  0  0  0
    1.0091   -3.1773    0.0000 O   0  0  0  0  0  0  0  0  0  0  0  0
    1.1588   -1.7527    0.0000 C   0  0  0  0  0  0  0  0  0  0  0  0
    0.3364   -1.6663    0.0000 O   0  0  0  0  0  0  0  0  0  0  0  0
    0.0000   -0.9108    0.0000 C   0  0  0  0  0  0  0  0  0  0  0  0
    1.6449   -1.0837    0.0000 C   0  0  0  0  0  0  0  0  0  0  0  0
    5.3151    1.4507    0.0000 S   0  0  0  0  0  0  0  0  0  0  0  0
  1  2  1  0  0  0
  2  3  1  0  0  0
  3 21  1  0  0  0
  3  4  2  0  0  0
  4  5  1  0  0  0
  5  6  2  0  0  0
  6  7  1  0  0  0
  7  8  1  0  0  0
  8  9  2  0  0  0
  8 10  1  0  0  0
 10 11  2  0  0  0
 11 12  1  0  0  0
 12 20  1  0  0  0
 12 13  2  0  0  0
 13 14  1  0  0  0
 14 15  2  0  0  0
 15 16  1  0  0  0
 15 17  1  0  0  0
 17 18  1  0  0  0
 18 19  1  0  0  0
 17 20  2  0  0  0
  6 21  1  0  0  0
M  END
>  <Entry>
435

>  <title>
3-9974

>  <rigid docking scores>
-15.9403

>  <InChIKey>
ZUWHDDBGWULWKP-FNORWQNLSA-N

$$$$
atoms 23 bonds 25
dotmatics
mol io
 23 25  0  0  0  0  0  0  0  0999 V2000
    2.2082    2.0966    0.0000 C   0  0  0  0  0  0  0  0  0  0  0  0
    2.2082    1.2696    0.0000 N   0  0  0  0  0  0  0  0  0  0  0  0
    2.8772    0.7835    0.0000 C   0  0  0  0  0  0  0  0  0  0  0  0
    3.6637    1.0391    0.0000 C   0  0  0  0  0  0  0  0  0  0  0  0
    3.8357    1.8480    0.0000 O   0  0  0  0  0  0  0  0  0  0  0  0
    4.2783    0.4857    0.0000 N   0  0  0  0  0  0  0  0  0  0  0  0
    5.0649    0.7413    0.0000 C   0  0  0  0  0  0  0  0  0  0  0  0
    5.2368    1.5502    0.0000 C   0  0  0  0  0  0  0  0  0  0  0  0
    6.0233    1.8057    0.0000 C   0  0  0  0  0  0  0  0  0  0  0  0
    6.6379    1.2524    0.0000 C   0  0  0  0  0  0  0  0  0  0  0  0
    6.4660    0.4434    0.0000 C   0  0  0  0  0  0  0  0  0  0  0  0
    7.0805   -0.1099    0.0000 Cl  0  0  0  0  0  0  0  0  0  0  0  0
    5.6794    0.1879    0.0000 C   0  0  0  0  0  0  0  0  0  0  0  0
    2.6217   -0.0030    0.0000 N   0  0  0  0  0  0  0  0  0  0  0  0
    1.7947   -0.0030    0.0000 N   0  0  0  0  0  0  0  0  0  0  0  0
    1.3086   -0.6721    0.0000 C   0  0  0  0  0  0  0  0  0  0  0  0
    1.6449   -1.4276    0.0000 C   0  0  0  0  0  0  0  0  0  0  0  0
    1.1588   -2.0966    0.0000 C   0  0  0  0  0  0  0  0  0  0  0  0
    0.3364   -2.0102    0.0000 C   0  0  0  0  0  0  0  0  0  0  0  0
    0.0000   -1.2547    0.0000 C   0  0  0  0  0  0  0  0  0  0  0  0
    0.4861   -0.5856    0.0000 C   0  0  0  0  0  0  0  0  0  0  0  0
    1.5391    0.7835    0.0000 C   0  0  0  0  0  0  0  0  0  0  0  0
    0.7526    1.0391    0.0000 O   0  0  0  0  0  0  0  0  0  0  0  0
  1  2  1  0  0  0
  2 22  1  0  0  0
  2  3  1  0  0  0
  3  4  1  0  0  0
  4  5  2  0  0  0
  4  6  1  0  0  0
  6  7  1  0  0  0
  7 13  1  0  0  0
  7  8  2  0  0  0
  8  9  1  0  0  0
  9 10  2  0  0  0
 10 11  1  0  0  0
 11 12  1  0  0  0
 11 13  2  0  0  0
  3 14  2  0  0  0
 14 15  1  0  0  0
 15 16  1  0  0  0
 16 21  1  0  0  0
 16 17  2  0  0  0
 17 18  1  0  0  0
 18 19  2  0  0  0
 19 20  1  0  0  0
 20 21  2  0  0  0
 15 22  1  0  0  0
 22 23  2  0  0  0
M  END
>  <Entry>
436

>  <title>
4-91

>  <rigid docking scores>
-15.507

>  <InChIKey>
RRBFTYBUVWAQGV-UHFFFAOYSA-N

$$$$
atoms 22 bonds 24
dotmatics
mol io
 22 24  0  0  0  0  0  0  0  0999 V2000
    6.4683    1.6348    0.0000 C   0  0  0  0  0  0  0  0  0  0  0  0
    5.7491    1.2264    0.0000 N   0  0  0  0  0  0  0  0  0  0  0  0
    5.0359    1.6450    0.0000 C   0  0  0  0  0  0  0  0  0  0  0  0
    5.0418    2.4720    0.0000 O   0  0  0  0  0  0  0  0  0  0  0  0
    4.3168    1.2366    0.0000 C   0  0  0  0  0  0  0  0  0  0  0  0
    4.3109    0.4096    0.0000 C   0  0  0  0  0  0  0  0  0  0  0  0
    3.5917    0.0013    0.0000 C   0  0  0  0  0  0  0  0  0  0  0  0
    2.8785    0.4199    0.0000 C   0  0  0  0  0  0  0  0  0  0  0  0
    2.1594    0.0115    0.0000 C   0  0  0  0  0  0  0  0  0  0  0  0
    2.1534   -0.8155    0.0000 N   0  0  0  0  0  0  0  0  0  0  0  0
    2.8693   -1.2296    0.0000 C   0  0  0  0  0  0  0  0  0  0  0  0
    2.8693   -2.0578    0.0000 C   0  0  0  0  0  0  0  0  0  0  0  0
    3.5851   -2.4720    0.0000 O   0  0  0  0  0  0  0  0  0  0  0  0
    2.1534   -2.4720    0.0000 N   0  0  0  0  0  0  0  0  0  0  0  0
    1.4317   -2.0578    0.0000 C   0  0  0  0  0  0  0  0  0  0  0  0
    0.7158   -2.4720    0.0000 C   0  0  0  0  0  0  0  0  0  0  0  0
    0.0000   -2.0578    0.0000 C   0  0  0  0  0  0  0  0  0  0  0  0
    0.0000   -1.2296    0.0000 C   0  0  0  0  0  0  0  0  0  0  0  0
    0.7158   -0.8155    0.0000 C   0  0  0  0  0  0  0  0  0  0  0  0
    1.4317   -1.2296    0.0000 C   0  0  0  0  0  0  0  0  0  0  0  0
    2.8844    1.2469    0.0000 C   0  0  0  0  0  0  0  0  0  0  0  0
    3.6035    1.6552    0.0000 C   0  0  0  0  0  0  0  0  0  0  0  0
  1  2  1  0  0  0
  2  3  1  0  0  0
  3  4  2  0  0  0
  3  5  1  0  0  0
  5 22  1  0  0  0
  5  6  2  0  0  0
  6  7  1  0  0  0
  7  8  2  0  0  0
  8  9  1  0  0  0
  9 10  1  0  0  0
 10 20  1  0  0  0
 10 11  1  0  0  0
 11 12  1  0  0  0
 12 13  2  0  0  0
 12 14  1  0  0  0
 14 15  1  0  0  0
 15 20  1  0  0  0
 15 16  2  0  0  0
 16 17  1  0  0  0
 17 18  2  0  0  0
 18 19  1  0  0  0
 19 20  2  0  0  0
  8 21  1  0  0  0
 21 22  2  0  0  0
M  END
>  <Entry>
437

>  <title>
4-283

>  <rigid docking scores>
-16.6842

>  <InChIKey>
ZZHWLRCNFQHNJA-UHFFFAOYSA-N

$$$$
atoms 20 bonds 22
dotmatics
mol io
 20 22  0  0  0  0  0  0  0  0999 V2000
    3.7284   -0.3579    0.0000 C   0  0  0  0  0  0  0  0  0  0  0  0
    4.1412    0.3586    0.0000 C   0  0  0  0  0  0  0  0  0  0  0  0
    3.7271    1.0745    0.0000 C   0  0  0  0  0  0  0  0  0  0  0  0
    2.8989    1.0745    0.0000 C   0  0  0  0  0  0  0  0  0  0  0  0
    2.4847    1.7903    0.0000 C   0  0  0  0  0  0  0  0  0  0  0  0
    1.6565    1.7903    0.0000 N   0  0  0  0  0  0  0  0  0  0  0  0
    1.2424    1.0745    0.0000 C   0  0  0  0  0  0  0  0  0  0  0  0
    0.4141    1.0745    0.0000 C   0  0  0  0  0  0  0  0  0  0  0  0
    0.0000    1.7903    0.0000 O   0  0  0  0  0  0  0  0  0  0  0  0
    0.4141    2.5062    0.0000 C   0  0  0  0  0  0  0  0  0  0  0  0
    1.2424    2.5062    0.0000 C   0  0  0  0  0  0  0  0  0  0  0  0
    2.8989    2.5062    0.0000 C   0  0  0  0  0  0  0  0  0  0  0  0
    3.7271    2.5062    0.0000 C   0  0  0  0  0  0  0  0  0  0  0  0
    4.1412    1.7903    0.0000 N   0  0  0  0  0  0  0  0  0  0  0  0
    4.1425   -1.0738    0.0000 C   0  0  0  0  0  0  0  0  0  0  0  0
    4.9695   -1.0730    0.0000 C   0  0  0  0  0  0  0  0  0  0  0  0
    5.3836   -1.7889    0.0000 C   0  0  0  0  0  0  0  0  0  0  0  0
    4.9707   -2.5054    0.0000 C   0  0  0  0  0  0  0  0  0  0  0  0
    4.1437   -2.5062    0.0000 N   0  0  0  0  0  0  0  0  0  0  0  0
    3.7296   -1.7903    0.0000 C   0  0  0  0  0  0  0  0  0  0  0  0
  1  2  2  0  0  0
  2  3  1  0  0  0
  3 14  1  0  0  0
  3  4  2  0  0  0
  4  5  1  0  0  0
  5  6  1  0  0  0
  6 11  1  0  0  0
  6  7  1  0  0  0
  7  8  1  0  0  0
  8  9  1  0  0  0
  9 10  1  0  0  0
 10 11  1  0  0  0
  5 12  2  0  0  0
 12 13  1  0  0  0
 13 14  2  0  0  0
  1 15  1  0  0  0
 15 20  1  0  0  0
 15 16  2  0  0  0
 16 17  1  0  0  0
 17 18  2  0  0  0
 18 19  1  0  0  0
 19 20  2  0  0  0
M  END
>  <Entry>
438

>  <title>
1-2983

>  <rigid docking scores>
-15.6672

>  <InChIKey>
ZWJVIAFPEAESCW-ONEGZZNKSA-N

$$$$
atoms 23 bonds 26
dotmatics
mol io
 23 26  0  0  0  0  0  0  0  0999 V2000
    0.7173    2.7289    0.0000 C   0  0  0  0  0  0  0  0  0  0  0  0
    1.4331    2.3148    0.0000 C   0  0  0  0  0  0  0  0  0  0  0  0
    1.4324    1.4878    0.0000 C   0  0  0  0  0  0  0  0  0  0  0  0
    0.7158    1.0749    0.0000 C   0  0  0  0  0  0  0  0  0  0  0  0
    0.7151    0.2479    0.0000 C   0  0  0  0  0  0  0  0  0  0  0  0
    1.4310   -0.1662    0.0000 N   0  0  0  0  0  0  0  0  0  0  0  0
    1.4310   -0.9944    0.0000 C   0  0  0  0  0  0  0  0  0  0  0  0
    2.1468   -1.4086    0.0000 C   0  0  0  0  0  0  0  0  0  0  0  0
    2.8626   -0.9944    0.0000 C   0  0  0  0  0  0  0  0  0  0  0  0
    3.6495   -1.2488    0.0000 C   0  0  0  0  0  0  0  0  0  0  0  0
    4.1346   -0.5803    0.0000 N   0  0  0  0  0  0  0  0  0  0  0  0
    4.9616   -0.5803    0.0000 C   0  0  0  0  0  0  0  0  0  0  0  0
    5.3751   -1.2965    0.0000 C   0  0  0  0  0  0  0  0  0  0  0  0
    6.2021   -1.2965    0.0000 C   0  0  0  0  0  0  0  0  0  0  0  0
    6.6156   -2.0127    0.0000 C   0  0  0  0  0  0  0  0  0  0  0  0
    6.2021   -2.7289    0.0000 C   0  0  0  0  0  0  0  0  0  0  0  0
    5.3751   -2.7289    0.0000 N   0  0  0  0  0  0  0  0  0  0  0  0
    4.9616   -2.0127    0.0000 C   0  0  0  0  0  0  0  0  0  0  0  0
    3.6495    0.0882    0.0000 C   0  0  0  0  0  0  0  0  0  0  0  0
    2.8626   -0.1662    0.0000 C   0  0  0  0  0  0  0  0  0  0  0  0
    2.1468    0.2479    0.0000 C   0  0  0  0  0  0  0  0  0  0  0  0
    0.0000    1.4891    0.0000 N   0  0  0  0  0  0  0  0  0  0  0  0
    0.0007    2.3161    0.0000 C   0  0  0  0  0  0  0  0  0  0  0  0
  1 23  1  0  0  0
  1  2  2  0  0  0
  2  3  1  0  0  0
  3  4  2  0  0  0
  4  5  1  0  0  0
  5  6  1  0  0  0
  6 21  1  0  0  0
  6  7  1  0  0  0
  7  8  1  0  0  0
  8  9  1  0  0  0
  9 20  1  0  0  0
  9 10  1  0  0  0
 10 11  1  0  0  0
 11 12  1  0  0  0
 12 13  1  0  0  0
 13 18  1  0  0  0
 13 14  2  0  0  0
 14 15  1  0  0  0
 15 16  2  0  0  0
 16 17  1  0  0  0
 17 18  2  0  0  0
 11 19  1  0  0  0
 19 20  1  0  0  0
 20 21  1  0  0  0
  4 22  1  0  0  0
 22 23  2  0  0  0
M  END
>  <Entry>
439

>  <title>
4-510

>  <rigid docking scores>
-17.0446

>  <InChIKey>
APCYONHLEQLSOA-UHFFFAOYSA-N

$$$$
atoms 22 bonds 25
dotmatics
mol io
 22 25  0  0  0  0  0  0  0  0999 V2000
    4.7771    1.4884    0.0000 O   0  0  0  0  0  0  0  0  0  0  0  0
    5.1906    0.7722    0.0000 C   0  0  0  0  0  0  0  0  0  0  0  0
    4.7771    0.0560    0.0000 C   0  0  0  0  0  0  0  0  0  0  0  0
    5.1906   -0.6602    0.0000 C   0  0  0  0  0  0  0  0  0  0  0  0
    4.7771   -1.3764    0.0000 C   0  0  0  0  0  0  0  0  0  0  0  0
    3.9501   -1.3764    0.0000 C   0  0  0  0  0  0  0  0  0  0  0  0
    3.5366   -0.6602    0.0000 N   0  0  0  0  0  0  0  0  0  0  0  0
    2.7096   -0.6602    0.0000 C   0  0  0  0  0  0  0  0  0  0  0  0
    2.2185   -1.3287    0.0000 N   0  0  0  0  0  0  0  0  0  0  0  0
    1.4317   -1.0743    0.0000 C   0  0  0  0  0  0  0  0  0  0  0  0
    0.7158   -1.4884    0.0000 C   0  0  0  0  0  0  0  0  0  0  0  0
    0.0000   -1.0743    0.0000 C   0  0  0  0  0  0  0  0  0  0  0  0
    0.0000   -0.2461    0.0000 C   0  0  0  0  0  0  0  0  0  0  0  0
    0.7158    0.1681    0.0000 C   0  0  0  0  0  0  0  0  0  0  0  0
    1.4317   -0.2461    0.0000 C   0  0  0  0  0  0  0  0  0  0  0  0
    2.2185    0.0083    0.0000 O   0  0  0  0  0  0  0  0  0  0  0  0
    3.9501    0.0560    0.0000 C   0  0  0  0  0  0  0  0  0  0  0  0
    6.0176    0.7722    0.0000 N   0  0  0  0  0  0  0  0  0  0  0  0
    6.5037    1.4413    0.0000 C   0  0  0  0  0  0  0  0  0  0  0  0
    7.2902    1.1857    0.0000 C   0  0  0  0  0  0  0  0  0  0  0  0
    7.2902    0.3587    0.0000 C   0  0  0  0  0  0  0  0  0  0  0  0
    6.5037    0.1032    0.0000 C   0  0  0  0  0  0  0  0  0  0  0  0
  1  2  2  0  0  0
  2  3  1  0  0  0
  3 17  1  0  0  0
  3  4  1  0  0  0
  4  5  1  0  0  0
  5  6  1  0  0  0
  6  7  1  0  0  0
  7  8  1  0  0  0
  8 16  1  0  0  0
  8  9  2  0  0  0
  9 10  1  0  0  0
 10 15  1  0  0  0
 10 11  2  0  0  0
 11 12  1  0  0  0
 12 13  2  0  0  0
 13 14  1  0  0  0
 14 15  2  0  0  0
 15 16  1  0  0  0
  7 17  1  0  0  0
  2 18  1  0  0  0
 18 22  1  0  0  0
 18 19  1  0  0  0
 19 20  1  0  0  0
 20 21  1  0  0  0
 21 22  1  0  0  0
M  END
>  <Entry>
440

>  <title>
4-852

>  <rigid docking scores>
-17.2716

>  <InChIKey>
VPSQWSVWLDWEBY-UHFFFAOYSA-N

$$$$
atoms 23 bonds 25
dotmatics
mol io
 23 25  0  0  0  0  0  0  0  0999 V2000
    8.5989    0.8307    0.0000 C   0  0  0  0  0  0  0  0  0  0  0  0
    7.8823    1.2436    0.0000 O   0  0  0  0  0  0  0  0  0  0  0  0
    7.1665    0.8295    0.0000 C   0  0  0  0  0  0  0  0  0  0  0  0
    7.1672    0.0025    0.0000 C   0  0  0  0  0  0  0  0  0  0  0  0
    6.4514   -0.4116    0.0000 C   0  0  0  0  0  0  0  0  0  0  0  0
    5.7348    0.0012    0.0000 C   0  0  0  0  0  0  0  0  0  0  0  0
    5.7341    0.8282    0.0000 C   0  0  0  0  0  0  0  0  0  0  0  0
    5.0175    1.2411    0.0000 N   0  0  0  0  0  0  0  0  0  0  0  0
    4.3017    0.8270    0.0000 C   0  0  0  0  0  0  0  0  0  0  0  0
    4.3024    0.0000    0.0000 O   0  0  0  0  0  0  0  0  0  0  0  0
    3.5851    1.2399    0.0000 C   0  0  0  0  0  0  0  0  0  0  0  0
    2.8693    0.8258    0.0000 N   0  0  0  0  0  0  0  0  0  0  0  0
    2.8693   -0.0025    0.0000 C   0  0  0  0  0  0  0  0  0  0  0  0
    2.1534   -0.4166    0.0000 C   0  0  0  0  0  0  0  0  0  0  0  0
    1.4317   -0.0025    0.0000 C   0  0  0  0  0  0  0  0  0  0  0  0
    0.7158   -0.4166    0.0000 C   0  0  0  0  0  0  0  0  0  0  0  0
    0.7158   -1.2436    0.0000 F   0  0  0  0  0  0  0  0  0  0  0  0
    0.0000   -0.0025    0.0000 C   0  0  0  0  0  0  0  0  0  0  0  0
    0.0000    0.8258    0.0000 C   0  0  0  0  0  0  0  0  0  0  0  0
    0.7158    1.2399    0.0000 C   0  0  0  0  0  0  0  0  0  0  0  0
    1.4317    0.8258    0.0000 C   0  0  0  0  0  0  0  0  0  0  0  0
    2.1534    1.2399    0.0000 C   0  0  0  0  0  0  0  0  0  0  0  0
    6.4499    1.2424    0.0000 C   0  0  0  0  0  0  0  0  0  0  0  0
  1  2  1  0  0  0
  2  3  1  0  0  0
  3 23  1  0  0  0
  3  4  2  0  0  0
  4  5  1  0  0  0
  5  6  2  0  0  0
  6  7  1  0  0  0
  7  8  1  0  0  0
  8  9  1  0  0  0
  9 10  2  0  0  0
  9 11  1  0  0  0
 11 12  1  0  0  0
 12 22  1  0  0  0
 12 13  1  0  0  0
 13 14  1  0  0  0
 14 15  1  0  0  0
 15 21  1  0  0  0
 15 16  2  0  0  0
 16 17  1  0  0  0
 16 18  1  0  0  0
 18 19  2  0  0  0
 19 20  1  0  0  0
 20 21  2  0  0  0
 21 22  1  0  0  0
  7 23  2  0  0  0
M  END
>  <Entry>
441

>  <title>
4-1066

>  <rigid docking scores>
-16.7517

>  <InChIKey>
QUNDKBSGPZWWPP-UHFFFAOYSA-N

$$$$
atoms 21 bonds 23
dotmatics
mol io
 21 23  0  0  0  0  0  0  0  0999 V2000
    7.6716    0.6602    0.0000 C   0  0  0  0  0  0  0  0  0  0  0  0
    7.2581   -0.0560    0.0000 C   0  0  0  0  0  0  0  0  0  0  0  0
    7.6716   -0.7722    0.0000 C   0  0  0  0  0  0  0  0  0  0  0  0
    7.2581   -1.4884    0.0000 C   0  0  0  0  0  0  0  0  0  0  0  0
    6.4311   -1.4884    0.0000 C   0  0  0  0  0  0  0  0  0  0  0  0
    6.0176   -0.7722    0.0000 N   0  0  0  0  0  0  0  0  0  0  0  0
    5.1906   -0.7722    0.0000 C   0  0  0  0  0  0  0  0  0  0  0  0
    4.7771   -0.0560    0.0000 C   0  0  0  0  0  0  0  0  0  0  0  0
    3.9501   -0.0560    0.0000 C   0  0  0  0  0  0  0  0  0  0  0  0
    3.5366   -0.7722    0.0000 O   0  0  0  0  0  0  0  0  0  0  0  0
    3.5366    0.6602    0.0000 N   0  0  0  0  0  0  0  0  0  0  0  0
    2.7096    0.6602    0.0000 C   0  0  0  0  0  0  0  0  0  0  0  0
    2.2185   -0.0083    0.0000 N   0  0  0  0  0  0  0  0  0  0  0  0
    1.4317    0.2461    0.0000 C   0  0  0  0  0  0  0  0  0  0  0  0
    0.7158   -0.1681    0.0000 C   0  0  0  0  0  0  0  0  0  0  0  0
    0.0000    0.2461    0.0000 C   0  0  0  0  0  0  0  0  0  0  0  0
    0.0000    1.0743    0.0000 C   0  0  0  0  0  0  0  0  0  0  0  0
    0.7158    1.4884    0.0000 C   0  0  0  0  0  0  0  0  0  0  0  0
    1.4317    1.0743    0.0000 C   0  0  0  0  0  0  0  0  0  0  0  0
    2.2185    1.3287    0.0000 S   0  0  0  0  0  0  0  0  0  0  0  0
    6.4311   -0.0560    0.0000 C   0  0  0  0  0  0  0  0  0  0  0  0
  1  2  1  0  0  0
  2 21  1  0  0  0
  2  3  1  0  0  0
  3  4  1  0  0  0
  4  5  1  0  0  0
  5  6  1  0  0  0
  6  7  1  0  0  0
  7  8  1  0  0  0
  8  9  1  0  0  0
  9 10  2  0  0  0
  9 11  1  0  0  0
 11 12  1  0  0  0
 12 20  1  0  0  0
 12 13  2  0  0  0
 13 14  1  0  0  0
 14 19  1  0  0  0
 14 15  2  0  0  0
 15 16  1  0  0  0
 16 17  2  0  0  0
 17 18  1  0  0  0
 18 19  2  0  0  0
 19 20  1  0  0  0
  6 21  1  0  0  0
M  END
>  <Entry>
442

>  <title>
4-1458

>  <rigid docking scores>
-18.0783

>  <InChIKey>
PTWSFUPMATZAEX-UHFFFAOYSA-N

$$$$
atoms 23 bonds 25
dotmatics
mol io
 23 25  0  0  0  0  0  0  0  0999 V2000
    6.6235    2.5047    0.0000 C   0  0  0  0  0  0  0  0  0  0  0  0
    6.2094    1.7889    0.0000 N   0  0  0  0  0  0  0  0  0  0  0  0
    5.3824    1.7896    0.0000 C   0  0  0  0  0  0  0  0  0  0  0  0
    4.9695    2.5062    0.0000 O   0  0  0  0  0  0  0  0  0  0  0  0
    4.9682    1.0738    0.0000 C   0  0  0  0  0  0  0  0  0  0  0  0
    5.3824    0.3579    0.0000 C   0  0  0  0  0  0  0  0  0  0  0  0
    4.9682   -0.3579    0.0000 C   0  0  0  0  0  0  0  0  0  0  0  0
    4.1400   -0.3579    0.0000 C   0  0  0  0  0  0  0  0  0  0  0  0
    3.7259    0.3579    0.0000 N   0  0  0  0  0  0  0  0  0  0  0  0
    2.8976    0.3579    0.0000 C   0  0  0  0  0  0  0  0  0  0  0  0
    2.4835   -0.3579    0.0000 C   0  0  0  0  0  0  0  0  0  0  0  0
    1.6552   -0.3579    0.0000 C   0  0  0  0  0  0  0  0  0  0  0  0
    1.2411   -1.0738    0.0000 C   0  0  0  0  0  0  0  0  0  0  0  0
    1.6540   -1.7903    0.0000 C   0  0  0  0  0  0  0  0  0  0  0  0
    1.2399   -2.5062    0.0000 C   0  0  0  0  0  0  0  0  0  0  0  0
    0.4129   -2.5054    0.0000 C   0  0  0  0  0  0  0  0  0  0  0  0
    0.0000   -1.7889    0.0000 C   0  0  0  0  0  0  0  0  0  0  0  0
    0.4141   -1.0730    0.0000 C   0  0  0  0  0  0  0  0  0  0  0  0
    1.2411    0.3579    0.0000 N   0  0  0  0  0  0  0  0  0  0  0  0
    1.6552    1.0738    0.0000 C   0  0  0  0  0  0  0  0  0  0  0  0
    1.2411    1.7896    0.0000 C   0  0  0  0  0  0  0  0  0  0  0  0
    2.4835    1.0738    0.0000 N   0  0  0  0  0  0  0  0  0  0  0  0
    4.1400    1.0738    0.0000 C   0  0  0  0  0  0  0  0  0  0  0  0
  1  2  1  0  0  0
  2  3  1  0  0  0
  3  4  2  0  0  0
  3  5  1  0  0  0
  5 23  1  0  0  0
  5  6  1  0  0  0
  6  7  1  0  0  0
  7  8  1  0  0  0
  8  9  1  0  0  0
  9 10  1  0  0  0
 10 22  1  0  0  0
 10 11  2  0  0  0
 11 12  1  0  0  0
 12 13  1  0  0  0
 13 18  1  0  0  0
 13 14  2  0  0  0
 14 15  1  0  0  0
 15 16  2  0  0  0
 16 17  1  0  0  0
 17 18  2  0  0  0
 12 19  2  0  0  0
 19 20  1  0  0  0
 20 21  1  0  0  0
 20 22  2  0  0  0
  9 23  1  0  0  0
M  END
>  <Entry>
443

>  <title>
4-1904

>  <rigid docking scores>
-17.1517

>  <InChIKey>
OYSBPRJSNODAIU-UHFFFAOYSA-N

$$$$
atoms 23 bonds 25
dotmatics
mol io
 23 25  0  0  0  0  0  0  0  0999 V2000
    0.7433    4.0577    0.0000 N   0  0  0  0  0  0  0  0  0  0  0  0
    1.1568    3.3415    0.0000 C   0  0  0  0  0  0  0  0  0  0  0  0
    0.7433    2.6253    0.0000 O   0  0  0  0  0  0  0  0  0  0  0  0
    1.9838    3.3415    0.0000 C   0  0  0  0  0  0  0  0  0  0  0  0
    2.4699    4.0106    0.0000 C   0  0  0  0  0  0  0  0  0  0  0  0
    3.2564    3.7550    0.0000 C   0  0  0  0  0  0  0  0  0  0  0  0
    3.2564    2.9280    0.0000 C   0  0  0  0  0  0  0  0  0  0  0  0
    2.4699    2.6724    0.0000 N   0  0  0  0  0  0  0  0  0  0  0  0
    2.2143    1.8859    0.0000 C   0  0  0  0  0  0  0  0  0  0  0  0
    2.7677    1.2713    0.0000 O   0  0  0  0  0  0  0  0  0  0  0  0
    1.4054    1.7140    0.0000 C   0  0  0  0  0  0  0  0  0  0  0  0
    1.1498    0.9274    0.0000 C   0  0  0  0  0  0  0  0  0  0  0  0
    0.3409    0.7555    0.0000 N   0  0  0  0  0  0  0  0  0  0  0  0
    0.0045   -0.0000    0.0000 C   0  0  0  0  0  0  0  0  0  0  0  0
   -0.8179    0.0864    0.0000 C   0  0  0  0  0  0  0  0  0  0  0  0
   -0.9899    0.8954    0.0000 C   0  0  0  0  0  0  0  0  0  0  0  0
   -1.7454    1.2317    0.0000 C   0  0  0  0  0  0  0  0  0  0  0  0
   -2.4144    0.7456    0.0000 C   0  0  0  0  0  0  0  0  0  0  0  0
   -3.1699    1.0820    0.0000 C   0  0  0  0  0  0  0  0  0  0  0  0
   -3.2564    1.9045    0.0000 N   0  0  0  0  0  0  0  0  0  0  0  0
   -2.5873    2.3906    0.0000 C   0  0  0  0  0  0  0  0  0  0  0  0
   -1.8318    2.0542    0.0000 C   0  0  0  0  0  0  0  0  0  0  0  0
   -0.2737    1.3089    0.0000 N   0  0  0  0  0  0  0  0  0  0  0  0
  1  2  1  0  0  0
  2  3  2  0  0  0
  2  4  1  0  0  0
  4  8  1  0  0  0
  4  5  1  0  0  0
  5  6  1  0  0  0
  6  7  1  0  0  0
  7  8  1  0  0  0
  8  9  1  0  0  0
  9 10  2  0  0  0
  9 11  1  0  0  0
 11 12  1  0  0  0
 12 13  1  0  0  0
 13 23  1  0  0  0
 13 14  1  0  0  0
 14 15  2  0  0  0
 15 16  1  0  0  0
 16 17  1  0  0  0
 17 22  1  0  0  0
 17 18  2  0  0  0
 18 19  1  0  0  0
 19 20  2  0  0  0
 20 21  1  0  0  0
 21 22  2  0  0  0
 16 23  2  0  0  0
M  END
>  <Entry>
444

>  <title>
4-1943

>  <rigid docking scores>
-16.7422

>  <InChIKey>
ALWRDGGYSBPKID-UHFFFAOYSA-N

$$$$
atoms 20 bonds 21
dotmatics
mol io
 20 21  0  0  0  0  0  0  0  0999 V2000
   -3.7215    2.1486    0.0000 C   0  0  0  0  0  0  0  0  0  0  0  0
   -2.8945    2.1486    0.0000 C   0  0  0  0  0  0  0  0  0  0  0  0
   -2.4810    2.8648    0.0000 N   0  0  0  0  0  0  0  0  0  0  0  0
   -1.6540    2.8648    0.0000 C   0  0  0  0  0  0  0  0  0  0  0  0
   -1.2405    3.5810    0.0000 C   0  0  0  0  0  0  0  0  0  0  0  0
   -1.2405    2.1486    0.0000 C   0  0  0  0  0  0  0  0  0  0  0  0
   -0.4135    2.1486    0.0000 N   0  0  0  0  0  0  0  0  0  0  0  0
    0.0000    1.4324    0.0000 C   0  0  0  0  0  0  0  0  0  0  0  0
   -0.4135    0.7162    0.0000 O   0  0  0  0  0  0  0  0  0  0  0  0
    0.8270    1.4324    0.0000 C   0  0  0  0  0  0  0  0  0  0  0  0
    1.2405    0.7162    0.0000 C   0  0  0  0  0  0  0  0  0  0  0  0
    2.0675    0.7162    0.0000 C   0  0  0  0  0  0  0  0  0  0  0  0
    2.4810    1.4324    0.0000 C   0  0  0  0  0  0  0  0  0  0  0  0
    3.3080    1.4324    0.0000 C   0  0  0  0  0  0  0  0  0  0  0  0
    3.7215    0.7162    0.0000 C   0  0  0  0  0  0  0  0  0  0  0  0
    3.3080   -0.0000    0.0000 C   0  0  0  0  0  0  0  0  0  0  0  0
    2.4810   -0.0000    0.0000 C   0  0  0  0  0  0  0  0  0  0  0  0
   -1.6540    1.4324    0.0000 C   0  0  0  0  0  0  0  0  0  0  0  0
   -2.4810    1.4324    0.0000 C   0  0  0  0  0  0  0  0  0  0  0  0
   -2.8945    0.7162    0.0000 N   0  0  0  0  0  0  0  0  0  0  0  0
  1  2  1  0  0  0
  2 19  1  0  0  0
  2  3  2  0  0  0
  3  4  1  0  0  0
  4  5  1  0  0  0
  4  6  2  0  0  0
  6  7  1  0  0  0
  7  8  1  0  0  0
  8  9  2  0  0  0
  8 10  1  0  0  0
 10 11  2  0  0  0
 11 12  1  0  0  0
 12 17  1  0  0  0
 12 13  2  0  0  0
 13 14  1  0  0  0
 14 15  2  0  0  0
 15 16  1  0  0  0
 16 17  2  0  0  0
  6 18  1  0  0  0
 18 19  2  0  0  0
 19 20  1  0  0  0
M  END
>  <Entry>
445

>  <title>
4-2084

>  <rigid docking scores>
-16.2396

>  <InChIKey>
DMMCBRHRLGBOMD-CMDGGOBGSA-N

$$$$
atoms 20 bonds 22
dotmatics
mol io
 20 22  0  0  0  0  0  0  0  0999 V2000
   -0.8142    2.7786    0.0000 C   0  0  0  0  0  0  0  0  0  0  0  0
    0.0128    2.7786    0.0000 C   0  0  0  0  0  0  0  0  0  0  0  0
    0.4989    3.4476    0.0000 O   0  0  0  0  0  0  0  0  0  0  0  0
    1.2854    3.1921    0.0000 C   0  0  0  0  0  0  0  0  0  0  0  0
    1.9545    3.6782    0.0000 C   0  0  0  0  0  0  0  0  0  0  0  0
    1.9545    4.5052    0.0000 C   0  0  0  0  0  0  0  0  0  0  0  0
    2.7410    4.7607    0.0000 C   0  0  0  0  0  0  0  0  0  0  0  0
    3.2271    4.0917    0.0000 S   0  0  0  0  0  0  0  0  0  0  0  0
    2.7410    3.4226    0.0000 C   0  0  0  0  0  0  0  0  0  0  0  0
    1.2854    2.3651    0.0000 N   0  0  0  0  0  0  0  0  0  0  0  0
    0.4989    2.1095    0.0000 C   0  0  0  0  0  0  0  0  0  0  0  0
    0.2433    1.3230    0.0000 C   0  0  0  0  0  0  0  0  0  0  0  0
   -0.5656    1.1511    0.0000 N   0  0  0  0  0  0  0  0  0  0  0  0
   -0.7617    0.3476    0.0000 C   0  0  0  0  0  0  0  0  0  0  0  0
   -1.5121    0.0000    0.0000 C   0  0  0  0  0  0  0  0  0  0  0  0
   -2.2517    0.3699    0.0000 C   0  0  0  0  0  0  0  0  0  0  0  0
   -2.4237    1.1789    0.0000 N   0  0  0  0  0  0  0  0  0  0  0  0
   -3.2271    1.3749    0.0000 C   0  0  0  0  0  0  0  0  0  0  0  0
   -1.8984    1.8176    0.0000 C   0  0  0  0  0  0  0  0  0  0  0  0
   -1.0715    1.8053    0.0000 C   0  0  0  0  0  0  0  0  0  0  0  0
  1  2  1  0  0  0
  2 11  2  0  0  0
  2  3  1  0  0  0
  3  4  1  0  0  0
  4  5  1  0  0  0
  5  9  2  0  0  0
  5  6  1  0  0  0
  6  7  2  0  0  0
  7  8  1  0  0  0
  8  9  1  0  0  0
  4 10  2  0  0  0
 10 11  1  0  0  0
 11 12  1  0  0  0
 12 13  1  0  0  0
 13 20  1  0  0  0
 13 14  1  0  0  0
 14 15  1  0  0  0
 15 16  1  0  0  0
 16 17  1  0  0  0
 17 18  1  0  0  0
 17 19  1  0  0  0
 19 20  1  0  0  0
M  END
>  <Entry>
446

>  <title>
1-3143

>  <rigid docking scores>
-16.4489

>  <InChIKey>
QJLQSHSCLBHUJM-UHFFFAOYSA-N

$$$$
atoms 23 bonds 25
dotmatics
mol io
 23 25  0  0  0  0  0  0  0  0999 V2000
    0.7433    4.0577    0.0000 C   0  0  0  0  0  0  0  0  0  0  0  0
    1.1568    3.3415    0.0000 C   0  0  0  0  0  0  0  0  0  0  0  0
    1.9838    3.3415    0.0000 N   0  0  0  0  0  0  0  0  0  0  0  0
    2.4699    4.0106    0.0000 C   0  0  0  0  0  0  0  0  0  0  0  0
    2.2143    4.7971    0.0000 O   0  0  0  0  0  0  0  0  0  0  0  0
    3.2564    3.7550    0.0000 C   0  0  0  0  0  0  0  0  0  0  0  0
    3.2564    2.9280    0.0000 C   0  0  0  0  0  0  0  0  0  0  0  0
    2.4699    2.6724    0.0000 C   0  0  0  0  0  0  0  0  0  0  0  0
    2.2143    1.8859    0.0000 C   0  0  0  0  0  0  0  0  0  0  0  0
    2.7677    1.2713    0.0000 O   0  0  0  0  0  0  0  0  0  0  0  0
    1.4054    1.7140    0.0000 N   0  0  0  0  0  0  0  0  0  0  0  0
    1.1498    0.9274    0.0000 C   0  0  0  0  0  0  0  0  0  0  0  0
    0.3409    0.7555    0.0000 C   0  0  0  0  0  0  0  0  0  0  0  0
    0.0045   -0.0000    0.0000 C   0  0  0  0  0  0  0  0  0  0  0  0
   -0.8179    0.0864    0.0000 S   0  0  0  0  0  0  0  0  0  0  0  0
   -0.9899    0.8954    0.0000 C   0  0  0  0  0  0  0  0  0  0  0  0
   -1.7454    1.2317    0.0000 C   0  0  0  0  0  0  0  0  0  0  0  0
   -2.4144    0.7456    0.0000 C   0  0  0  0  0  0  0  0  0  0  0  0
   -3.1699    1.0820    0.0000 N   0  0  0  0  0  0  0  0  0  0  0  0
   -3.2564    1.9045    0.0000 C   0  0  0  0  0  0  0  0  0  0  0  0
   -2.5873    2.3906    0.0000 C   0  0  0  0  0  0  0  0  0  0  0  0
   -1.8318    2.0542    0.0000 N   0  0  0  0  0  0  0  0  0  0  0  0
   -0.2737    1.3089    0.0000 N   0  0  0  0  0  0  0  0  0  0  0  0
  1  2  1  0  0  0
  2  3  1  0  0  0
  3  8  1  0  0  0
  3  4  1  0  0  0
  4  5  2  0  0  0
  4  6  1  0  0  0
  6  7  1  0  0  0
  7  8  1  0  0  0
  8  9  1  0  0  0
  9 10  2  0  0  0
  9 11  1  0  0  0
 11 12  1  0  0  0
 12 13  1  0  0  0
 13 23  1  0  0  0
 13 14  2  0  0  0
 14 15  1  0  0  0
 15 16  1  0  0  0
 16 17  1  0  0  0
 17 22  1  0  0  0
 17 18  2  0  0  0
 18 19  1  0  0  0
 19 20  2  0  0  0
 20 21  1  0  0  0
 21 22  2  0  0  0
 16 23  2  0  0  0
M  END
>  <Entry>
447

>  <title>
1-3172

>  <rigid docking scores>
-18.2476

>  <InChIKey>
MHADVJYPKWVFEK-UHFFFAOYSA-N

$$$$
atoms 24 bonds 27
dotmatics
mol io
 24 27  0  0  0  0  0  0  0  0999 V2000
    2.9014   -1.7355    0.0000 O   0  0  0  0  0  0  0  0  0  0  0  0
    3.7284   -1.7347    0.0000 C   0  0  0  0  0  0  0  0  0  0  0  0
    4.1412   -1.0182    0.0000 N   0  0  0  0  0  0  0  0  0  0  0  0
    3.7271   -0.3023    0.0000 C   0  0  0  0  0  0  0  0  0  0  0  0
    2.8989   -0.3023    0.0000 C   0  0  0  0  0  0  0  0  0  0  0  0
    2.4847    0.4135    0.0000 C   0  0  0  0  0  0  0  0  0  0  0  0
    1.6565    0.4135    0.0000 C   0  0  0  0  0  0  0  0  0  0  0  0
    1.2424   -0.3023    0.0000 C   0  0  0  0  0  0  0  0  0  0  0  0
    0.4141   -0.3023    0.0000 C   0  0  0  0  0  0  0  0  0  0  0  0
    0.0000    0.4135    0.0000 C   0  0  0  0  0  0  0  0  0  0  0  0
    0.4141    1.1293    0.0000 C   0  0  0  0  0  0  0  0  0  0  0  0
    1.2424    1.1293    0.0000 C   0  0  0  0  0  0  0  0  0  0  0  0
    2.8989    1.1293    0.0000 N   0  0  0  0  0  0  0  0  0  0  0  0
    3.7271    1.1293    0.0000 C   0  0  0  0  0  0  0  0  0  0  0  0
    4.1412    1.8452    0.0000 C   0  0  0  0  0  0  0  0  0  0  0  0
    3.7284    2.5617    0.0000 C   0  0  0  0  0  0  0  0  0  0  0  0
    4.1425    3.2776    0.0000 C   0  0  0  0  0  0  0  0  0  0  0  0
    4.9695    3.2769    0.0000 N   0  0  0  0  0  0  0  0  0  0  0  0
    5.3824    2.5603    0.0000 C   0  0  0  0  0  0  0  0  0  0  0  0
    4.9682    1.8445    0.0000 C   0  0  0  0  0  0  0  0  0  0  0  0
    4.1412    0.4135    0.0000 N   0  0  0  0  0  0  0  0  0  0  0  0
    4.1425   -2.4506    0.0000 C   0  0  0  0  0  0  0  0  0  0  0  0
    4.8591   -2.8635    0.0000 C   0  0  0  0  0  0  0  0  0  0  0  0
    4.1432   -3.2776    0.0000 C   0  0  0  0  0  0  0  0  0  0  0  0
  1  2  2  0  0  0
  2  3  1  0  0  0
  3  4  1  0  0  0
  4 21  1  0  0  0
  4  5  2  0  0  0
  5  6  1  0  0  0
  6  7  1  0  0  0
  7 12  1  0  0  0
  7  8  2  0  0  0
  8  9  1  0  0  0
  9 10  2  0  0  0
 10 11  1  0  0  0
 11 12  2  0  0  0
  6 13  2  0  0  0
 13 14  1  0  0  0
 14 15  1  0  0  0
 15 20  1  0  0  0
 15 16  2  0  0  0
 16 17  1  0  0  0
 17 18  2  0  0  0
 18 19  1  0  0  0
 19 20  2  0  0  0
 14 21  2  0  0  0
  2 22  1  0  0  0
 22 24  1  0  0  0
 22 23  1  0  0  0
 23 24  1  0  0  0
M  END
>  <Entry>
448

>  <title>
4-2323

>  <rigid docking scores>
-16.0369

>  <InChIKey>
QTAOEMWJXXXAJP-UHFFFAOYSA-N

$$$$
atoms 23 bonds 25
dotmatics
mol io
 23 25  0  0  0  0  0  0  0  0999 V2000
    4.1412   -2.5054    0.0000 C   0  0  0  0  0  0  0  0  0  0  0  0
    3.7271   -1.7896    0.0000 N   0  0  0  0  0  0  0  0  0  0  0  0
    2.8989   -1.7896    0.0000 C   0  0  0  0  0  0  0  0  0  0  0  0
    2.4847   -1.0738    0.0000 C   0  0  0  0  0  0  0  0  0  0  0  0
    1.6565   -1.0738    0.0000 C   0  0  0  0  0  0  0  0  0  0  0  0
    1.2424   -1.7896    0.0000 C   0  0  0  0  0  0  0  0  0  0  0  0
    0.4141   -1.7896    0.0000 C   0  0  0  0  0  0  0  0  0  0  0  0
    0.0000   -1.0738    0.0000 C   0  0  0  0  0  0  0  0  0  0  0  0
    0.4141   -0.3579    0.0000 C   0  0  0  0  0  0  0  0  0  0  0  0
    1.2424   -0.3579    0.0000 C   0  0  0  0  0  0  0  0  0  0  0  0
    2.8989   -0.3579    0.0000 N   0  0  0  0  0  0  0  0  0  0  0  0
    3.7271   -0.3579    0.0000 C   0  0  0  0  0  0  0  0  0  0  0  0
    4.1412    0.3579    0.0000 C   0  0  0  0  0  0  0  0  0  0  0  0
    3.7284    1.0745    0.0000 O   0  0  0  0  0  0  0  0  0  0  0  0
    4.9682    0.3572    0.0000 N   0  0  0  0  0  0  0  0  0  0  0  0
    5.3824    1.0730    0.0000 C   0  0  0  0  0  0  0  0  0  0  0  0
    4.9695    1.7896    0.0000 C   0  0  0  0  0  0  0  0  0  0  0  0
    5.3836    2.5054    0.0000 C   0  0  0  0  0  0  0  0  0  0  0  0
    6.2106    2.5047    0.0000 C   0  0  0  0  0  0  0  0  0  0  0  0
    6.6235    1.7882    0.0000 N   0  0  0  0  0  0  0  0  0  0  0  0
    6.2094    1.0723    0.0000 C   0  0  0  0  0  0  0  0  0  0  0  0
    4.1412   -1.0738    0.0000 C   0  0  0  0  0  0  0  0  0  0  0  0
    4.9682   -1.0738    0.0000 O   0  0  0  0  0  0  0  0  0  0  0  0
  1  2  1  0  0  0
  2 22  1  0  0  0
  2  3  1  0  0  0
  3  4  2  0  0  0
  4  5  1  0  0  0
  5 10  1  0  0  0
  5  6  2  0  0  0
  6  7  1  0  0  0
  7  8  2  0  0  0
  8  9  1  0  0  0
  9 10  2  0  0  0
  4 11  1  0  0  0
 11 12  2  0  0  0
 12 13  1  0  0  0
 13 14  2  0  0  0
 13 15  1  0  0  0
 15 16  1  0  0  0
 16 21  1  0  0  0
 16 17  2  0  0  0
 17 18  1  0  0  0
 18 19  2  0  0  0
 19 20  1  0  0  0
 20 21  2  0  0  0
 12 22  1  0  0  0
 22 23  2  0  0  0
M  END
>  <Entry>
449

>  <title>
4-2982

>  <rigid docking scores>
-16.1868

>  <InChIKey>
BXLYTWHEOPCXDE-UHFFFAOYSA-N

$$$$
atoms 20 bonds 22
dotmatics
mol io
 20 22  0  0  0  0  0  0  0  0999 V2000
    5.6503    2.7289    0.0000 C   0  0  0  0  0  0  0  0  0  0  0  0
    5.6503    1.9019    0.0000 N   0  0  0  0  0  0  0  0  0  0  0  0
    6.3194    1.4158    0.0000 C   0  0  0  0  0  0  0  0  0  0  0  0
    6.0638    0.6293    0.0000 C   0  0  0  0  0  0  0  0  0  0  0  0
    5.2368    0.6293    0.0000 C   0  0  0  0  0  0  0  0  0  0  0  0
    4.7507   -0.0398    0.0000 N   0  0  0  0  0  0  0  0  0  0  0  0
    5.0871   -0.7953    0.0000 C   0  0  0  0  0  0  0  0  0  0  0  0
    3.9282    0.0467    0.0000 C   0  0  0  0  0  0  0  0  0  0  0  0
    3.4421   -0.6224    0.0000 C   0  0  0  0  0  0  0  0  0  0  0  0
    3.6977   -1.4089    0.0000 N   0  0  0  0  0  0  0  0  0  0  0  0
    3.0286   -1.8950    0.0000 N   0  0  0  0  0  0  0  0  0  0  0  0
    2.3596   -1.4089    0.0000 C   0  0  0  0  0  0  0  0  0  0  0  0
    1.5730   -1.6644    0.0000 C   0  0  0  0  0  0  0  0  0  0  0  0
    1.4011   -2.4734    0.0000 C   0  0  0  0  0  0  0  0  0  0  0  0
    0.6146   -2.7289    0.0000 C   0  0  0  0  0  0  0  0  0  0  0  0
    0.0000   -2.1756    0.0000 C   0  0  0  0  0  0  0  0  0  0  0  0
    0.1719   -1.3666    0.0000 C   0  0  0  0  0  0  0  0  0  0  0  0
    0.9585   -1.1111    0.0000 C   0  0  0  0  0  0  0  0  0  0  0  0
    2.6151   -0.6224    0.0000 O   0  0  0  0  0  0  0  0  0  0  0  0
    4.9812    1.4158    0.0000 C   0  0  0  0  0  0  0  0  0  0  0  0
  1  2  1  0  0  0
  2 20  1  0  0  0
  2  3  1  0  0  0
  3  4  1  0  0  0
  4  5  1  0  0  0
  5  6  1  0  0  0
  6  7  1  0  0  0
  6  8  1  0  0  0
  8  9  1  0  0  0
  9 19  1  0  0  0
  9 10  2  0  0  0
 10 11  1  0  0  0
 11 12  2  0  0  0
 12 13  1  0  0  0
 13 18  1  0  0  0
 13 14  2  0  0  0
 14 15  1  0  0  0
 15 16  2  0  0  0
 16 17  1  0  0  0
 17 18  2  0  0  0
 12 19  1  0  0  0
  5 20  1  0  0  0
M  END
>  <Entry>
450

>  <title>
4-3036

>  <rigid docking scores>
-17.1785

>  <InChIKey>
MXOCNJKJOZEDDM-UHFFFAOYSA-N

$$$$
atoms 21 bonds 23
dotmatics
mol io
 21 23  0  0  0  0  0  0  0  0999 V2000
    5.2087    2.5647    0.0000 C   0  0  0  0  0  0  0  0  0  0  0  0
    4.4925    2.1512    0.0000 C   0  0  0  0  0  0  0  0  0  0  0  0
    3.7763    2.5647    0.0000 O   0  0  0  0  0  0  0  0  0  0  0  0
    4.4925    1.3242    0.0000 N   0  0  0  0  0  0  0  0  0  0  0  0
    5.2087    0.9107    0.0000 C   0  0  0  0  0  0  0  0  0  0  0  0
    5.2087    0.0837    0.0000 C   0  0  0  0  0  0  0  0  0  0  0  0
    4.4925   -0.3298    0.0000 N   0  0  0  0  0  0  0  0  0  0  0  0
    4.4925   -1.1568    0.0000 C   0  0  0  0  0  0  0  0  0  0  0  0
    3.7763   -1.5703    0.0000 C   0  0  0  0  0  0  0  0  0  0  0  0
    3.6898   -2.3928    0.0000 C   0  0  0  0  0  0  0  0  0  0  0  0
    2.8809   -2.5647    0.0000 O   0  0  0  0  0  0  0  0  0  0  0  0
    2.4674   -1.8485    0.0000 C   0  0  0  0  0  0  0  0  0  0  0  0
    1.6449   -1.7621    0.0000 C   0  0  0  0  0  0  0  0  0  0  0  0
    1.1588   -2.4311    0.0000 C   0  0  0  0  0  0  0  0  0  0  0  0
    0.3364   -2.3447    0.0000 C   0  0  0  0  0  0  0  0  0  0  0  0
    0.0000   -1.5892    0.0000 C   0  0  0  0  0  0  0  0  0  0  0  0
    0.4861   -0.9201    0.0000 C   0  0  0  0  0  0  0  0  0  0  0  0
    1.3086   -1.0066    0.0000 C   0  0  0  0  0  0  0  0  0  0  0  0
    3.0208   -1.2339    0.0000 N   0  0  0  0  0  0  0  0  0  0  0  0
    3.7763    0.0837    0.0000 C   0  0  0  0  0  0  0  0  0  0  0  0
    3.7763    0.9107    0.0000 C   0  0  0  0  0  0  0  0  0  0  0  0
  1  2  1  0  0  0
  2  3  2  0  0  0
  2  4  1  0  0  0
  4 21  1  0  0  0
  4  5  1  0  0  0
  5  6  1  0  0  0
  6  7  1  0  0  0
  7  8  1  0  0  0
  8  9  1  0  0  0
  9 19  1  0  0  0
  9 10  2  0  0  0
 10 11  1  0  0  0
 11 12  1  0  0  0
 12 13  1  0  0  0
 13 18  1  0  0  0
 13 14  2  0  0  0
 14 15  1  0  0  0
 15 16  2  0  0  0
 16 17  1  0  0  0
 17 18  2  0  0  0
 12 19  2  0  0  0
  7 20  1  0  0  0
 20 21  1  0  0  0
M  END
>  <Entry>
451

>  <title>
4-3053

>  <rigid docking scores>
-16.3772

>  <InChIKey>
QZMADHZYIKMNTA-UHFFFAOYSA-N

>  <ZINC>
ZINC000066861629

>  <eMolecules>
36257862

>  <Pubchem>
53521619

>  <Mcule>
MCULE-5494186786

>  <MolPort>
MolPort-020-105-253

$$$$
atoms 25 bonds 27
dotmatics
mol io
 25 27  0  0  0  0  0  0  0  0999 V2000
    8.6897   -0.3577    0.0000 C   0  0  0  0  0  0  0  0  0  0  0  0
    8.2762    0.3585    0.0000 C   0  0  0  0  0  0  0  0  0  0  0  0
    8.6897    1.0747    0.0000 O   0  0  0  0  0  0  0  0  0  0  0  0
    7.4492    0.3585    0.0000 N   0  0  0  0  0  0  0  0  0  0  0  0
    7.0351   -0.3574    0.0000 C   0  0  0  0  0  0  0  0  0  0  0  0
    6.2069   -0.3574    0.0000 C   0  0  0  0  0  0  0  0  0  0  0  0
    5.7927    0.3585    0.0000 N   0  0  0  0  0  0  0  0  0  0  0  0
    4.9645    0.3585    0.0000 C   0  0  0  0  0  0  0  0  0  0  0  0
    4.5504   -0.3574    0.0000 N   0  0  0  0  0  0  0  0  0  0  0  0
    3.7221   -0.3574    0.0000 N   0  0  0  0  0  0  0  0  0  0  0  0
    3.3080    0.3585    0.0000 C   0  0  0  0  0  0  0  0  0  0  0  0
    2.4810    0.3585    0.0000 C   0  0  0  0  0  0  0  0  0  0  0  0
    2.0675   -0.3577    0.0000 C   0  0  0  0  0  0  0  0  0  0  0  0
    2.4810   -1.0739    0.0000 C   0  0  0  0  0  0  0  0  0  0  0  0
    2.0675   -1.7901    0.0000 C   0  0  0  0  0  0  0  0  0  0  0  0
    1.2405   -1.7901    0.0000 C   0  0  0  0  0  0  0  0  0  0  0  0
    0.8270   -1.0739    0.0000 C   0  0  0  0  0  0  0  0  0  0  0  0
    0.0000   -1.0739    0.0000 C   0  0  0  0  0  0  0  0  0  0  0  0
    1.2405   -0.3577    0.0000 C   0  0  0  0  0  0  0  0  0  0  0  0
    3.7221    1.0743    0.0000 C   0  0  0  0  0  0  0  0  0  0  0  0
    3.3080    1.7901    0.0000 C   0  0  0  0  0  0  0  0  0  0  0  0
    4.5504    1.0743    0.0000 C   0  0  0  0  0  0  0  0  0  0  0  0
    4.9645    1.7901    0.0000 C   0  0  0  0  0  0  0  0  0  0  0  0
    6.2069    1.0743    0.0000 C   0  0  0  0  0  0  0  0  0  0  0  0
    7.0351    1.0743    0.0000 C   0  0  0  0  0  0  0  0  0  0  0  0
  1  2  1  0  0  0
  2  3  2  0  0  0
  2  4  1  0  0  0
  4 25  1  0  0  0
  4  5  1  0  0  0
  5  6  1  0  0  0
  6  7  1  0  0  0
  7  8  1  0  0  0
  8 22  1  0  0  0
  8  9  2  0  0  0
  9 10  1  0  0  0
 10 11  2  0  0  0
 11 12  1  0  0  0
 12 13  1  0  0  0
 13 19  1  0  0  0
 13 14  2  0  0  0
 14 15  1  0  0  0
 15 16  2  0  0  0
 16 17  1  0  0  0
 17 18  1  0  0  0
 17 19  2  0  0  0
 11 20  1  0  0  0
 20 21  1  0  0  0
 20 22  2  0  0  0
 22 23  1  0  0  0
  7 24  1  0  0  0
 24 25  1  0  0  0
M  END
>  <Entry>
452

>  <title>
4-3602

>  <rigid docking scores>
-16.9715

>  <InChIKey>
PITFPAUXJCTHQV-UHFFFAOYSA-N

$$$$
atoms 24 bonds 27
dotmatics
mol io
 24 27  0  0  0  0  0  0  0  0999 V2000
    8.1810    1.6516    0.0000 C   0  0  0  0  0  0  0  0  0  0  0  0
    7.4255    1.3152    0.0000 C   0  0  0  0  0  0  0  0  0  0  0  0
    7.2535    0.5063    0.0000 N   0  0  0  0  0  0  0  0  0  0  0  0
    6.4311    0.4199    0.0000 C   0  0  0  0  0  0  0  0  0  0  0  0
    6.0176   -0.2963    0.0000 C   0  0  0  0  0  0  0  0  0  0  0  0
    6.4311   -1.0125    0.0000 C   0  0  0  0  0  0  0  0  0  0  0  0
    6.0176   -1.7287    0.0000 C   0  0  0  0  0  0  0  0  0  0  0  0
    5.1906   -1.7287    0.0000 C   0  0  0  0  0  0  0  0  0  0  0  0
    4.7771   -1.0125    0.0000 C   0  0  0  0  0  0  0  0  0  0  0  0
    3.9501   -1.0125    0.0000 N   0  0  0  0  0  0  0  0  0  0  0  0
    3.5366   -0.2963    0.0000 C   0  0  0  0  0  0  0  0  0  0  0  0
    3.9501    0.4199    0.0000 O   0  0  0  0  0  0  0  0  0  0  0  0
    2.7096   -0.2963    0.0000 C   0  0  0  0  0  0  0  0  0  0  0  0
    2.2185   -0.9648    0.0000 C   0  0  0  0  0  0  0  0  0  0  0  0
    1.4317   -0.7105    0.0000 C   0  0  0  0  0  0  0  0  0  0  0  0
    0.7158   -1.1246    0.0000 C   0  0  0  0  0  0  0  0  0  0  0  0
    0.0000   -0.7105    0.0000 C   0  0  0  0  0  0  0  0  0  0  0  0
    0.0000    0.1178    0.0000 C   0  0  0  0  0  0  0  0  0  0  0  0
    0.7158    0.5319    0.0000 C   0  0  0  0  0  0  0  0  0  0  0  0
    1.4317    0.1178    0.0000 C   0  0  0  0  0  0  0  0  0  0  0  0
    2.2185    0.3722    0.0000 O   0  0  0  0  0  0  0  0  0  0  0  0
    5.1906   -0.2963    0.0000 C   0  0  0  0  0  0  0  0  0  0  0  0
    6.0947    1.1754    0.0000 N   0  0  0  0  0  0  0  0  0  0  0  0
    6.7093    1.7287    0.0000 O   0  0  0  0  0  0  0  0  0  0  0  0
  1  2  1  0  0  0
  2 24  1  0  0  0
  2  3  2  0  0  0
  3  4  1  0  0  0
  4  5  1  0  0  0
  5 22  1  0  0  0
  5  6  2  0  0  0
  6  7  1  0  0  0
  7  8  2  0  0  0
  8  9  1  0  0  0
  9 10  1  0  0  0
 10 11  1  0  0  0
 11 12  2  0  0  0
 11 13  1  0  0  0
 13 21  1  0  0  0
 13 14  1  0  0  0
 14 15  1  0  0  0
 15 20  1  0  0  0
 15 16  2  0  0  0
 16 17  1  0  0  0
 17 18  2  0  0  0
 18 19  1  0  0  0
 19 20  2  0  0  0
 20 21  1  0  0  0
  9 22  2  0  0  0
  4 23  2  0  0  0
 23 24  1  0  0  0
M  END
>  <Entry>
453

>  <title>
4-4004

>  <rigid docking scores>
-17.0652

>  <InChIKey>
FPYYQUJGDPXDHE-UHFFFAOYSA-N

>  <Mcule>
MCULE-4957379991

$$$$
atoms 22 bonds 24
dotmatics
mol io
 22 24  0  0  0  0  0  0  0  0999 V2000
    5.0127    2.6890    0.0000 C   0  0  0  0  0  0  0  0  0  0  0  0
    4.2965    2.2755    0.0000 C   0  0  0  0  0  0  0  0  0  0  0  0
    4.2965    1.4485    0.0000 C   0  0  0  0  0  0  0  0  0  0  0  0
    3.5803    1.0350    0.0000 C   0  0  0  0  0  0  0  0  0  0  0  0
    2.8641    1.4485    0.0000 C   0  0  0  0  0  0  0  0  0  0  0  0
    2.1479    1.0350    0.0000 C   0  0  0  0  0  0  0  0  0  0  0  0
    2.1479    0.2080    0.0000 N   0  0  0  0  0  0  0  0  0  0  0  0
    2.8641   -0.2055    0.0000 C   0  0  0  0  0  0  0  0  0  0  0  0
    1.4317   -0.2055    0.0000 C   0  0  0  0  0  0  0  0  0  0  0  0
    0.7155    0.2080    0.0000 O   0  0  0  0  0  0  0  0  0  0  0  0
    1.4317   -1.0325    0.0000 C   0  0  0  0  0  0  0  0  0  0  0  0
    0.7158   -1.4466    0.0000 C   0  0  0  0  0  0  0  0  0  0  0  0
    0.7158   -2.2749    0.0000 C   0  0  0  0  0  0  0  0  0  0  0  0
    0.0000   -2.6890    0.0000 O   0  0  0  0  0  0  0  0  0  0  0  0
    1.4317   -2.6890    0.0000 N   0  0  0  0  0  0  0  0  0  0  0  0
    2.1475   -2.2749    0.0000 C   0  0  0  0  0  0  0  0  0  0  0  0
    2.9344   -2.5293    0.0000 C   0  0  0  0  0  0  0  0  0  0  0  0
    3.4254   -1.8607    0.0000 C   0  0  0  0  0  0  0  0  0  0  0  0
    2.9344   -1.1922    0.0000 O   0  0  0  0  0  0  0  0  0  0  0  0
    2.1475   -1.4466    0.0000 C   0  0  0  0  0  0  0  0  0  0  0  0
    2.8641    2.2755    0.0000 C   0  0  0  0  0  0  0  0  0  0  0  0
    3.5803    2.6890    0.0000 C   0  0  0  0  0  0  0  0  0  0  0  0
  1  2  1  0  0  0
  2 22  1  0  0  0
  2  3  2  0  0  0
  3  4  1  0  0  0
  4  5  2  0  0  0
  5  6  1  0  0  0
  6  7  1  0  0  0
  7  8  1  0  0  0
  7  9  1  0  0  0
  9 10  2  0  0  0
  9 11  1  0  0  0
 11 20  1  0  0  0
 11 12  2  0  0  0
 12 13  1  0  0  0
 13 14  2  0  0  0
 13 15  1  0  0  0
 15 16  1  0  0  0
 16 20  2  0  0  0
 16 17  1  0  0  0
 17 18  2  0  0  0
 18 19  1  0  0  0
 19 20  1  0  0  0
  5 21  1  0  0  0
 21 22  2  0  0  0
M  END
>  <Entry>
454

>  <title>
4-4259

>  <rigid docking scores>
-15.3318

>  <InChIKey>
AUBFTTUYHPOBSF-UHFFFAOYSA-N

$$$$
atoms 21 bonds 23
dotmatics
mol io
 21 23  0  0  0  0  0  0  0  0999 V2000
    2.1475    0.2071    0.0000 O   0  0  0  0  0  0  0  0  0  0  0  0
    1.4310   -0.2058    0.0000 C   0  0  0  0  0  0  0  0  0  0  0  0
    0.7151    0.2083    0.0000 C   0  0  0  0  0  0  0  0  0  0  0  0
    0.7158    1.0353    0.0000 C   0  0  0  0  0  0  0  0  0  0  0  0
    0.0000    1.4494    0.0000 C   0  0  0  0  0  0  0  0  0  0  0  0
    0.0007    2.2764    0.0000 C   0  0  0  0  0  0  0  0  0  0  0  0
    0.7173    2.6893    0.0000 C   0  0  0  0  0  0  0  0  0  0  0  0
    1.4331    2.2752    0.0000 C   0  0  0  0  0  0  0  0  0  0  0  0
    1.4324    1.4482    0.0000 N   0  0  0  0  0  0  0  0  0  0  0  0
    1.4302   -1.0328    0.0000 N   0  0  0  0  0  0  0  0  0  0  0  0
    2.1461   -1.4469    0.0000 C   0  0  0  0  0  0  0  0  0  0  0  0
    2.1461   -2.2752    0.0000 C   0  0  0  0  0  0  0  0  0  0  0  0
    2.8619   -2.6893    0.0000 C   0  0  0  0  0  0  0  0  0  0  0  0
    3.5778   -2.2752    0.0000 C   0  0  0  0  0  0  0  0  0  0  0  0
    3.5778   -1.4469    0.0000 C   0  0  0  0  0  0  0  0  0  0  0  0
    2.8619   -1.0328    0.0000 C   0  0  0  0  0  0  0  0  0  0  0  0
    4.2995   -1.0328    0.0000 N   0  0  0  0  0  0  0  0  0  0  0  0
    5.0154   -1.4469    0.0000 C   0  0  0  0  0  0  0  0  0  0  0  0
    5.7312   -1.0328    0.0000 O   0  0  0  0  0  0  0  0  0  0  0  0
    5.0154   -2.2752    0.0000 C   0  0  0  0  0  0  0  0  0  0  0  0
    4.2995   -2.6893    0.0000 C   0  0  0  0  0  0  0  0  0  0  0  0
  1  2  2  0  0  0
  2  3  1  0  0  0
  3  4  1  0  0  0
  4  9  1  0  0  0
  4  5  2  0  0  0
  5  6  1  0  0  0
  6  7  2  0  0  0
  7  8  1  0  0  0
  8  9  2  0  0  0
  2 10  1  0  0  0
 10 11  1  0  0  0
 11 16  1  0  0  0
 11 12  2  0  0  0
 12 13  1  0  0  0
 13 14  2  0  0  0
 14 21  1  0  0  0
 14 15  1  0  0  0
 15 16  2  0  0  0
 15 17  1  0  0  0
 17 18  1  0  0  0
 18 19  2  0  0  0
 18 20  1  0  0  0
 20 21  1  0  0  0
M  END
>  <Entry>
455

>  <title>
1-3406

>  <rigid docking scores>
-18.2836

>  <InChIKey>
YVFCLQRBOQDFGD-UHFFFAOYSA-N

$$$$
atoms 22 bonds 24
dotmatics
mol io
 22 24  0  0  0  0  0  0  0  0999 V2000
    4.9682   -1.0730    0.0000 O   0  0  0  0  0  0  0  0  0  0  0  0
    4.1412   -1.0730    0.0000 C   0  0  0  0  0  0  0  0  0  0  0  0
    3.7271   -1.7889    0.0000 C   0  0  0  0  0  0  0  0  0  0  0  0
    2.8989   -1.7889    0.0000 C   0  0  0  0  0  0  0  0  0  0  0  0
    2.4847   -1.0730    0.0000 C   0  0  0  0  0  0  0  0  0  0  0  0
    1.6565   -1.0730    0.0000 C   0  0  0  0  0  0  0  0  0  0  0  0
    1.2424   -1.7889    0.0000 C   0  0  0  0  0  0  0  0  0  0  0  0
    0.4141   -1.7889    0.0000 C   0  0  0  0  0  0  0  0  0  0  0  0
    0.0000   -1.0730    0.0000 C   0  0  0  0  0  0  0  0  0  0  0  0
    0.4141   -0.3572    0.0000 C   0  0  0  0  0  0  0  0  0  0  0  0
    1.2424   -0.3572    0.0000 C   0  0  0  0  0  0  0  0  0  0  0  0
    2.8989   -0.3572    0.0000 N   0  0  0  0  0  0  0  0  0  0  0  0
    3.7271   -0.3572    0.0000 N   0  0  0  0  0  0  0  0  0  0  0  0
    4.1412    0.3586    0.0000 C   0  0  0  0  0  0  0  0  0  0  0  0
    4.9682    0.3579    0.0000 C   0  0  0  0  0  0  0  0  0  0  0  0
    5.3824    1.0738    0.0000 C   0  0  0  0  0  0  0  0  0  0  0  0
    6.2094    1.0730    0.0000 N   0  0  0  0  0  0  0  0  0  0  0  0
    6.6235    1.7889    0.0000 C   0  0  0  0  0  0  0  0  0  0  0  0
    7.4505    1.7882    0.0000 C   0  0  0  0  0  0  0  0  0  0  0  0
    7.8634    1.0716    0.0000 C   0  0  0  0  0  0  0  0  0  0  0  0
    7.4492    0.3558    0.0000 C   0  0  0  0  0  0  0  0  0  0  0  0
    6.6222    0.3565    0.0000 C   0  0  0  0  0  0  0  0  0  0  0  0
  1  2  2  0  0  0
  2 13  1  0  0  0
  2  3  1  0  0  0
  3  4  2  0  0  0
  4  5  1  0  0  0
  5  6  1  0  0  0
  6 11  1  0  0  0
  6  7  2  0  0  0
  7  8  1  0  0  0
  8  9  2  0  0  0
  9 10  1  0  0  0
 10 11  2  0  0  0
  5 12  2  0  0  0
 12 13  1  0  0  0
 13 14  1  0  0  0
 14 15  1  0  0  0
 15 16  1  0  0  0
 16 17  1  0  0  0
 17 22  1  0  0  0
 17 18  1  0  0  0
 18 19  1  0  0  0
 19 20  1  0  0  0
 20 21  1  0  0  0
 21 22  1  0  0  0
M  END
>  <Entry>
456

>  <title>
4-5505

>  <rigid docking scores>
-16.4797

>  <InChIKey>
XNWXHPNISJTVOZ-UHFFFAOYSA-N

$$$$
atoms 23 bonds 25
dotmatics
mol io
 23 25  0  0  0  0  0  0  0  0999 V2000
    6.4521    1.6527    0.0000 C   0  0  0  0  0  0  0  0  0  0  0  0
    6.4514    0.8257    0.0000 C   0  0  0  0  0  0  0  0  0  0  0  0
    7.1672    0.4116    0.0000 C   0  0  0  0  0  0  0  0  0  0  0  0
    7.1665   -0.4154    0.0000 C   0  0  0  0  0  0  0  0  0  0  0  0
    7.8823   -0.8295    0.0000 C   0  0  0  0  0  0  0  0  0  0  0  0
    6.4499   -0.8283    0.0000 C   0  0  0  0  0  0  0  0  0  0  0  0
    5.7341   -0.4141    0.0000 C   0  0  0  0  0  0  0  0  0  0  0  0
    5.0175   -0.8270    0.0000 N   0  0  0  0  0  0  0  0  0  0  0  0
    4.3017   -0.4129    0.0000 C   0  0  0  0  0  0  0  0  0  0  0  0
    4.3024    0.4141    0.0000 O   0  0  0  0  0  0  0  0  0  0  0  0
    3.5851   -0.8258    0.0000 C   0  0  0  0  0  0  0  0  0  0  0  0
    2.8693   -0.4116    0.0000 N   0  0  0  0  0  0  0  0  0  0  0  0
    2.8693    0.4166    0.0000 N   0  0  0  0  0  0  0  0  0  0  0  0
    2.1534    0.8307    0.0000 N   0  0  0  0  0  0  0  0  0  0  0  0
    1.4317    0.4166    0.0000 C   0  0  0  0  0  0  0  0  0  0  0  0
    0.7158    0.8307    0.0000 C   0  0  0  0  0  0  0  0  0  0  0  0
    0.0000    0.4166    0.0000 C   0  0  0  0  0  0  0  0  0  0  0  0
    0.0000   -0.4116    0.0000 C   0  0  0  0  0  0  0  0  0  0  0  0
    0.7158   -0.8258    0.0000 C   0  0  0  0  0  0  0  0  0  0  0  0
    1.4317   -0.4116    0.0000 C   0  0  0  0  0  0  0  0  0  0  0  0
    2.1534   -0.8258    0.0000 C   0  0  0  0  0  0  0  0  0  0  0  0
    2.1594   -1.6527    0.0000 O   0  0  0  0  0  0  0  0  0  0  0  0
    5.7348    0.4129    0.0000 C   0  0  0  0  0  0  0  0  0  0  0  0
  1  2  1  0  0  0
  2 23  1  0  0  0
  2  3  2  0  0  0
  3  4  1  0  0  0
  4  5  1  0  0  0
  4  6  2  0  0  0
  6  7  1  0  0  0
  7  8  1  0  0  0
  8  9  1  0  0  0
  9 10  2  0  0  0
  9 11  1  0  0  0
 11 12  1  0  0  0
 12 21  1  0  0  0
 12 13  1  0  0  0
 13 14  2  0  0  0
 14 15  1  0  0  0
 15 20  1  0  0  0
 15 16  2  0  0  0
 16 17  1  0  0  0
 17 18  2  0  0  0
 18 19  1  0  0  0
 19 20  2  0  0  0
 20 21  1  0  0  0
 21 22  2  0  0  0
  7 23  2  0  0  0
M  END
>  <Entry>
457

>  <title>
4-5743

>  <rigid docking scores>
-15.8702

>  <InChIKey>
IUNBILFDFLMKPF-UHFFFAOYSA-N

>  <ChEMBL>
CHEMBL1460442

>  <ZINC>
ZINC000003453535

>  <eMolecules>
3319466

>  <Pubchem>
2573775

>  <Mcule>
MCULE-7803008118

>  <MolPort>
MolPort-004-064-275

$$$$
atoms 21 bonds 23
dotmatics
mol io
 21 23  0  0  0  0  0  0  0  0999 V2000
    2.1482    2.4829    0.0000 C   0  0  0  0  0  0  0  0  0  0  0  0
    2.1475    1.6559    0.0000 N   0  0  0  0  0  0  0  0  0  0  0  0
    1.4310    1.2430    0.0000 C   0  0  0  0  0  0  0  0  0  0  0  0
    2.8634    1.2417    0.0000 C   0  0  0  0  0  0  0  0  0  0  0  0
    3.5792    1.6559    0.0000 C   0  0  0  0  0  0  0  0  0  0  0  0
    4.2951    1.2417    0.0000 C   0  0  0  0  0  0  0  0  0  0  0  0
    5.0819    1.4961    0.0000 N   0  0  0  0  0  0  0  0  0  0  0  0
    5.5729    0.8276    0.0000 N   0  0  0  0  0  0  0  0  0  0  0  0
    5.0819    0.1591    0.0000 C   0  0  0  0  0  0  0  0  0  0  0  0
    4.2951    0.4135    0.0000 C   0  0  0  0  0  0  0  0  0  0  0  0
    3.5792   -0.0006    0.0000 C   0  0  0  0  0  0  0  0  0  0  0  0
    2.8634    0.4135    0.0000 C   0  0  0  0  0  0  0  0  0  0  0  0
    2.1475   -0.0006    0.0000 N   0  0  0  0  0  0  0  0  0  0  0  0
    2.1482   -0.8276    0.0000 C   0  0  0  0  0  0  0  0  0  0  0  0
    2.8648   -1.2405    0.0000 O   0  0  0  0  0  0  0  0  0  0  0  0
    1.4324   -1.2417    0.0000 C   0  0  0  0  0  0  0  0  0  0  0  0
    0.7158   -0.8289    0.0000 C   0  0  0  0  0  0  0  0  0  0  0  0
    0.0000   -1.2430    0.0000 C   0  0  0  0  0  0  0  0  0  0  0  0
    0.0007   -2.0700    0.0000 C   0  0  0  0  0  0  0  0  0  0  0  0
    0.7173   -2.4829    0.0000 O   0  0  0  0  0  0  0  0  0  0  0  0
    1.4331   -2.0687    0.0000 C   0  0  0  0  0  0  0  0  0  0  0  0
  1  2  1  0  0  0
  2  3  1  0  0  0
  2  4  1  0  0  0
  4 12  1  0  0  0
  4  5  2  0  0  0
  5  6  1  0  0  0
  6 10  2  0  0  0
  6  7  1  0  0  0
  7  8  1  0  0  0
  8  9  2  0  0  0
  9 10  1  0  0  0
 10 11  1  0  0  0
 11 12  2  0  0  0
 12 13  1  0  0  0
 13 14  1  0  0  0
 14 15  2  0  0  0
 14 16  1  0  0  0
 16 21  1  0  0  0
 16 17  1  0  0  0
 17 18  1  0  0  0
 18 19  1  0  0  0
 19 20  1  0  0  0
 20 21  1  0  0  0
M  END
>  <Entry>
458

>  <title>
1-3541

>  <rigid docking scores>
-16.69

>  <InChIKey>
YWJCVINYRAKHPI-UHFFFAOYSA-N

$$$$
atoms 24 bonds 27
dotmatics
mol io
 24 27  0  0  0  0  0  0  0  0999 V2000
    5.2798    1.3473    0.0000 C   0  0  0  0  0  0  0  0  0  0  0  0
    6.0888    1.1754    0.0000 N   0  0  0  0  0  0  0  0  0  0  0  0
    6.7033    1.7287    0.0000 N   0  0  0  0  0  0  0  0  0  0  0  0
    7.4195    1.3152    0.0000 N   0  0  0  0  0  0  0  0  0  0  0  0
    7.2476    0.5063    0.0000 N   0  0  0  0  0  0  0  0  0  0  0  0
    6.4251    0.4199    0.0000 C   0  0  0  0  0  0  0  0  0  0  0  0
    6.0116   -0.2963    0.0000 C   0  0  0  0  0  0  0  0  0  0  0  0
    6.4251   -1.0125    0.0000 C   0  0  0  0  0  0  0  0  0  0  0  0
    6.0116   -1.7287    0.0000 C   0  0  0  0  0  0  0  0  0  0  0  0
    5.1846   -1.7287    0.0000 C   0  0  0  0  0  0  0  0  0  0  0  0
    4.7711   -1.0125    0.0000 C   0  0  0  0  0  0  0  0  0  0  0  0
    3.9441   -1.0125    0.0000 N   0  0  0  0  0  0  0  0  0  0  0  0
    3.5306   -0.2963    0.0000 C   0  0  0  0  0  0  0  0  0  0  0  0
    3.9441    0.4199    0.0000 O   0  0  0  0  0  0  0  0  0  0  0  0
    2.7036   -0.2963    0.0000 C   0  0  0  0  0  0  0  0  0  0  0  0
    2.2185   -0.9648    0.0000 C   0  0  0  0  0  0  0  0  0  0  0  0
    1.4317   -0.7105    0.0000 C   0  0  0  0  0  0  0  0  0  0  0  0
    0.7158   -1.1246    0.0000 C   0  0  0  0  0  0  0  0  0  0  0  0
    0.0000   -0.7105    0.0000 C   0  0  0  0  0  0  0  0  0  0  0  0
    0.0000    0.1178    0.0000 C   0  0  0  0  0  0  0  0  0  0  0  0
    0.7158    0.5319    0.0000 C   0  0  0  0  0  0  0  0  0  0  0  0
    1.4317    0.1178    0.0000 C   0  0  0  0  0  0  0  0  0  0  0  0
    2.2185    0.3722    0.0000 C   0  0  0  0  0  0  0  0  0  0  0  0
    5.1846   -0.2963    0.0000 C   0  0  0  0  0  0  0  0  0  0  0  0
  1  2  1  0  0  0
  2  6  1  0  0  0
  2  3  1  0  0  0
  3  4  2  0  0  0
  4  5  1  0  0  0
  5  6  2  0  0  0
  6  7  1  0  0  0
  7 24  1  0  0  0
  7  8  2  0  0  0
  8  9  1  0  0  0
  9 10  2  0  0  0
 10 11  1  0  0  0
 11 12  1  0  0  0
 12 13  1  0  0  0
 13 14  2  0  0  0
 13 15  1  0  0  0
 15 23  1  0  0  0
 15 16  1  0  0  0
 16 17  1  0  0  0
 17 22  1  0  0  0
 17 18  2  0  0  0
 18 19  1  0  0  0
 19 20  2  0  0  0
 20 21  1  0  0  0
 21 22  2  0  0  0
 22 23  1  0  0  0
 11 24  2  0  0  0
M  END
>  <Entry>
459

>  <title>
1-3545

>  <rigid docking scores>
-22.1668

>  <InChIKey>
ZGPNIXVUSOVITA-UHFFFAOYSA-N

$$$$
atoms 19 bonds 21
dotmatics
mol io
 19 21  0  0  0  0  0  0  0  0999 V2000
    6.2478    1.7044    0.0000 C   0  0  0  0  0  0  0  0  0  0  0  0
    5.9120    0.9486    0.0000 N   0  0  0  0  0  0  0  0  0  0  0  0
    6.3262    0.2327    0.0000 C   0  0  0  0  0  0  0  0  0  0  0  0
    5.7733   -0.3823    0.0000 C   0  0  0  0  0  0  0  0  0  0  0  0
    5.0175   -0.0466    0.0000 C   0  0  0  0  0  0  0  0  0  0  0  0
    4.3017   -0.4607    0.0000 C   0  0  0  0  0  0  0  0  0  0  0  0
    4.3024   -1.2877    0.0000 O   0  0  0  0  0  0  0  0  0  0  0  0
    3.5851   -0.0479    0.0000 N   0  0  0  0  0  0  0  0  0  0  0  0
    2.8693   -0.4620    0.0000 C   0  0  0  0  0  0  0  0  0  0  0  0
    2.8693   -1.2902    0.0000 C   0  0  0  0  0  0  0  0  0  0  0  0
    2.1534   -1.7044    0.0000 C   0  0  0  0  0  0  0  0  0  0  0  0
    1.4317   -1.2902    0.0000 C   0  0  0  0  0  0  0  0  0  0  0  0
    0.7158   -1.7044    0.0000 C   0  0  0  0  0  0  0  0  0  0  0  0
    0.0000   -1.2902    0.0000 C   0  0  0  0  0  0  0  0  0  0  0  0
    0.0000   -0.4620    0.0000 C   0  0  0  0  0  0  0  0  0  0  0  0
    0.7158   -0.0479    0.0000 C   0  0  0  0  0  0  0  0  0  0  0  0
    1.4317   -0.4620    0.0000 C   0  0  0  0  0  0  0  0  0  0  0  0
    2.1534   -0.0479    0.0000 C   0  0  0  0  0  0  0  0  0  0  0  0
    5.1033    0.7759    0.0000 C   0  0  0  0  0  0  0  0  0  0  0  0
  1  2  1  0  0  0
  2 19  1  0  0  0
  2  3  1  0  0  0
  3  4  1  0  0  0
  4  5  1  0  0  0
  5  6  1  0  0  0
  6  7  2  0  0  0
  6  8  1  0  0  0
  8  9  1  0  0  0
  9 18  1  0  0  0
  9 10  2  0  0  0
 10 11  1  0  0  0
 11 12  2  0  0  0
 12 17  1  0  0  0
 12 13  1  0  0  0
 13 14  2  0  0  0
 14 15  1  0  0  0
 15 16  2  0  0  0
 16 17  1  0  0  0
 17 18  2  0  0  0
  5 19  1  0  0  0
M  END
>  <Entry>
460

>  <title>
4-6621

>  <rigid docking scores>
-16.5352

>  <InChIKey>
NOHVRQOTFNINEY-UHFFFAOYSA-N

$$$$
atoms 23 bonds 26
dotmatics
mol io
 23 26  0  0  0  0  0  0  0  0999 V2000
    0.4811    4.1737    0.0000 O   0  0  0  0  0  0  0  0  0  0  0  0
    0.0676    3.4575    0.0000 C   0  0  0  0  0  0  0  0  0  0  0  0
    0.4811    2.7413    0.0000 N   0  0  0  0  0  0  0  0  0  0  0  0
    1.3081    2.7413    0.0000 C   0  0  0  0  0  0  0  0  0  0  0  0
    1.7216    3.4575    0.0000 C   0  0  0  0  0  0  0  0  0  0  0  0
    2.5486    3.4575    0.0000 N   0  0  0  0  0  0  0  0  0  0  0  0
    2.9621    2.7413    0.0000 C   0  0  0  0  0  0  0  0  0  0  0  0
    2.5486    2.0251    0.0000 C   0  0  0  0  0  0  0  0  0  0  0  0
    2.9621    1.3089    0.0000 C   0  0  0  0  0  0  0  0  0  0  0  0
    3.7846    1.2224    0.0000 C   0  0  0  0  0  0  0  0  0  0  0  0
    3.9566    0.4135    0.0000 N   0  0  0  0  0  0  0  0  0  0  0  0
    3.2404   -0.0000    0.0000 C   0  0  0  0  0  0  0  0  0  0  0  0
    2.6258    0.5534    0.0000 S   0  0  0  0  0  0  0  0  0  0  0  0
    1.7216    2.0251    0.0000 C   0  0  0  0  0  0  0  0  0  0  0  0
   -0.7594    3.4575    0.0000 N   0  0  0  0  0  0  0  0  0  0  0  0
   -1.1729    2.7413    0.0000 C   0  0  0  0  0  0  0  0  0  0  0  0
   -1.9999    2.7413    0.0000 C   0  0  0  0  0  0  0  0  0  0  0  0
   -2.4134    3.4575    0.0000 N   0  0  0  0  0  0  0  0  0  0  0  0
   -3.2404    3.4575    0.0000 C   0  0  0  0  0  0  0  0  0  0  0  0
   -3.9566    3.0440    0.0000 C   0  0  0  0  0  0  0  0  0  0  0  0
   -3.9566    3.8710    0.0000 C   0  0  0  0  0  0  0  0  0  0  0  0
   -1.9999    4.1737    0.0000 C   0  0  0  0  0  0  0  0  0  0  0  0
   -1.1729    4.1737    0.0000 C   0  0  0  0  0  0  0  0  0  0  0  0
  1  2  2  0  0  0
  2  3  1  0  0  0
  3  4  1  0  0  0
  4 14  1  0  0  0
  4  5  2  0  0  0
  5  6  1  0  0  0
  6  7  2  0  0  0
  7  8  1  0  0  0
  8  9  1  0  0  0
  9 13  1  0  0  0
  9 10  2  0  0  0
 10 11  1  0  0  0
 11 12  2  0  0  0
 12 13  1  0  0  0
  8 14  2  0  0  0
  2 15  1  0  0  0
 15 23  1  0  0  0
 15 16  1  0  0  0
 16 17  1  0  0  0
 17 18  1  0  0  0
 18 19  1  0  0  0
 19 21  1  0  0  0
 19 20  1  0  0  0
 20 21  1  0  0  0
 18 22  1  0  0  0
 22 23  1  0  0  0
M  END
>  <Entry>
461

>  <title>
1-3620

>  <rigid docking scores>
-17.0918

>  <InChIKey>
UQLUADGLVNQNIC-UHFFFAOYSA-N

$$$$
atoms 22 bonds 25
dotmatics
mol io
 22 25  0  0  0  0  0  0  0  0999 V2000
    2.7817    3.4692    0.0000 C   0  0  0  0  0  0  0  0  0  0  0  0
    3.5904    3.2958    0.0000 C   0  0  0  0  0  0  0  0  0  0  0  0
    3.8445    2.5088    0.0000 C   0  0  0  0  0  0  0  0  0  0  0  0
    3.2900    1.8952    0.0000 C   0  0  0  0  0  0  0  0  0  0  0  0
    3.5441    1.1083    0.0000 C   0  0  0  0  0  0  0  0  0  0  0  0
    4.3302    0.8513    0.0000 N   0  0  0  0  0  0  0  0  0  0  0  0
    4.3287    0.0243    0.0000 O   0  0  0  0  0  0  0  0  0  0  0  0
    3.5417   -0.2299    0.0000 C   0  0  0  0  0  0  0  0  0  0  0  0
    3.2847   -1.0159    0.0000 C   0  0  0  0  0  0  0  0  0  0  0  0
    2.4755   -1.1864    0.0000 N   0  0  0  0  0  0  0  0  0  0  0  0
    2.2185   -1.9725    0.0000 C   0  0  0  0  0  0  0  0  0  0  0  0
    2.7036   -2.6410    0.0000 C   0  0  0  0  0  0  0  0  0  0  0  0
    2.2185   -3.3095    0.0000 C   0  0  0  0  0  0  0  0  0  0  0  0
    1.4317   -3.0551    0.0000 C   0  0  0  0  0  0  0  0  0  0  0  0
    0.7158   -3.4692    0.0000 C   0  0  0  0  0  0  0  0  0  0  0  0
    0.0000   -3.0551    0.0000 C   0  0  0  0  0  0  0  0  0  0  0  0
    0.0000   -2.2268    0.0000 C   0  0  0  0  0  0  0  0  0  0  0  0
    0.7158   -1.8127    0.0000 C   0  0  0  0  0  0  0  0  0  0  0  0
    1.4317   -2.2268    0.0000 C   0  0  0  0  0  0  0  0  0  0  0  0
    3.0568    0.4401    0.0000 N   0  0  0  0  0  0  0  0  0  0  0  0
    2.4814    2.0687    0.0000 N   0  0  0  0  0  0  0  0  0  0  0  0
    2.2273    2.8556    0.0000 C   0  0  0  0  0  0  0  0  0  0  0  0
  1 22  1  0  0  0
  1  2  2  0  0  0
  2  3  1  0  0  0
  3  4  2  0  0  0
  4  5  1  0  0  0
  5 20  1  0  0  0
  5  6  2  0  0  0
  6  7  1  0  0  0
  7  8  1  0  0  0
  8  9  1  0  0  0
  9 10  1  0  0  0
 10 11  1  0  0  0
 11 19  1  0  0  0
 11 12  1  0  0  0
 12 13  1  0  0  0
 13 14  1  0  0  0
 14 19  1  0  0  0
 14 15  2  0  0  0
 15 16  1  0  0  0
 16 17  2  0  0  0
 17 18  1  0  0  0
 18 19  2  0  0  0
  8 20  2  0  0  0
  4 21  1  0  0  0
 21 22  2  0  0  0
M  END
>  <Entry>
462

>  <title>
4-8496

>  <rigid docking scores>
-15.5615

>  <InChIKey>
VCOGDMHGRPAADZ-UHFFFAOYSA-N

$$$$
atoms 23 bonds 26
dotmatics
mol io
 23 26  0  0  0  0  0  0  0  0999 V2000
    0.0000   -0.4091    0.0000 C   0  0  0  0  0  0  0  0  0  0  0  0
    0.0007    0.4179    0.0000 C   0  0  0  0  0  0  0  0  0  0  0  0
    0.7173    0.8307    0.0000 C   0  0  0  0  0  0  0  0  0  0  0  0
    1.4331    0.4166    0.0000 C   0  0  0  0  0  0  0  0  0  0  0  0
    2.1497    0.8295    0.0000 C   0  0  0  0  0  0  0  0  0  0  0  0
    2.1504    1.6565    0.0000 C   0  0  0  0  0  0  0  0  0  0  0  0
    2.8670    2.0694    0.0000 C   0  0  0  0  0  0  0  0  0  0  0  0
    3.5828    1.6552    0.0000 C   0  0  0  0  0  0  0  0  0  0  0  0
    3.5821    0.8282    0.0000 C   0  0  0  0  0  0  0  0  0  0  0  0
    4.2979    0.4141    0.0000 C   0  0  0  0  0  0  0  0  0  0  0  0
    4.2972   -0.4129    0.0000 N   0  0  0  0  0  0  0  0  0  0  0  0
    5.0131   -0.8270    0.0000 C   0  0  0  0  0  0  0  0  0  0  0  0
    5.0131   -1.6552    0.0000 C   0  0  0  0  0  0  0  0  0  0  0  0
    5.7289   -2.0694    0.0000 C   0  0  0  0  0  0  0  0  0  0  0  0
    6.4447   -1.6552    0.0000 C   0  0  0  0  0  0  0  0  0  0  0  0
    7.2316   -1.9096    0.0000 N   0  0  0  0  0  0  0  0  0  0  0  0
    7.7226   -1.2411    0.0000 C   0  0  0  0  0  0  0  0  0  0  0  0
    7.2316   -0.5726    0.0000 N   0  0  0  0  0  0  0  0  0  0  0  0
    6.4447   -0.8270    0.0000 N   0  0  0  0  0  0  0  0  0  0  0  0
    5.7289   -0.4129    0.0000 C   0  0  0  0  0  0  0  0  0  0  0  0
    2.8655    0.4154    0.0000 N   0  0  0  0  0  0  0  0  0  0  0  0
    1.4324   -0.4104    0.0000 C   0  0  0  0  0  0  0  0  0  0  0  0
    0.7158   -0.8233    0.0000 C   0  0  0  0  0  0  0  0  0  0  0  0
  1 23  1  0  0  0
  1  2  2  0  0  0
  2  3  1  0  0  0
  3  4  2  0  0  0
  4  5  1  0  0  0
  5 21  1  0  0  0
  5  6  2  0  0  0
  6  7  1  0  0  0
  7  8  2  0  0  0
  8  9  1  0  0  0
  9 10  1  0  0  0
 10 11  1  0  0  0
 11 12  1  0  0  0
 12 20  1  0  0  0
 12 13  1  0  0  0
 13 14  1  0  0  0
 14 15  1  0  0  0
 15 19  1  0  0  0
 15 16  2  0  0  0
 16 17  1  0  0  0
 17 18  2  0  0  0
 18 19  1  0  0  0
 19 20  1  0  0  0
  9 21  2  0  0  0
  4 22  1  0  0  0
 22 23  2  0  0  0
M  END
>  <Entry>
463

>  <title>
4-8969

>  <rigid docking scores>
-17.3491

>  <InChIKey>
AQFDPQXIDSSZRI-UHFFFAOYSA-N

$$$$
atoms 20 bonds 22
dotmatics
mol io
 20 22  0  0  0  0  0  0  0  0999 V2000
   -3.5439    1.4324    0.0000 C   0  0  0  0  0  0  0  0  0  0  0  0
   -3.1304    0.7162    0.0000 C   0  0  0  0  0  0  0  0  0  0  0  0
   -3.5439    0.0000    0.0000 O   0  0  0  0  0  0  0  0  0  0  0  0
   -2.3034    0.7162    0.0000 N   0  0  0  0  0  0  0  0  0  0  0  0
   -1.8899    1.4324    0.0000 C   0  0  0  0  0  0  0  0  0  0  0  0
   -1.0629    1.4324    0.0000 C   0  0  0  0  0  0  0  0  0  0  0  0
   -0.6494    0.7162    0.0000 C   0  0  0  0  0  0  0  0  0  0  0  0
    0.1776    0.7162    0.0000 C   0  0  0  0  0  0  0  0  0  0  0  0
    0.6637    1.3853    0.0000 N   0  0  0  0  0  0  0  0  0  0  0  0
    1.4503    1.1297    0.0000 C   0  0  0  0  0  0  0  0  0  0  0  0
    2.1193    1.6158    0.0000 C   0  0  0  0  0  0  0  0  0  0  0  0
    2.0329    2.4383    0.0000 C   0  0  0  0  0  0  0  0  0  0  0  0
    2.7019    2.9244    0.0000 C   0  0  0  0  0  0  0  0  0  0  0  0
    3.4574    2.5880    0.0000 C   0  0  0  0  0  0  0  0  0  0  0  0
    3.5439    1.7655    0.0000 N   0  0  0  0  0  0  0  0  0  0  0  0
    2.8748    1.2794    0.0000 C   0  0  0  0  0  0  0  0  0  0  0  0
    1.4503    0.3027    0.0000 C   0  0  0  0  0  0  0  0  0  0  0  0
    0.6637    0.0471    0.0000 S   0  0  0  0  0  0  0  0  0  0  0  0
   -1.0629    0.0000    0.0000 C   0  0  0  0  0  0  0  0  0  0  0  0
   -1.8899    0.0000    0.0000 C   0  0  0  0  0  0  0  0  0  0  0  0
  1  2  1  0  0  0
  2  3  2  0  0  0
  2  4  1  0  0  0
  4 20  1  0  0  0
  4  5  1  0  0  0
  5  6  1  0  0  0
  6  7  1  0  0  0
  7  8  1  0  0  0
  8 18  1  0  0  0
  8  9  2  0  0  0
  9 10  1  0  0  0
 10 11  1  0  0  0
 11 16  1  0  0  0
 11 12  2  0  0  0
 12 13  1  0  0  0
 13 14  2  0  0  0
 14 15  1  0  0  0
 15 16  2  0  0  0
 10 17  2  0  0  0
 17 18  1  0  0  0
  7 19  1  0  0  0
 19 20  1  0  0  0
M  END
>  <Entry>
464

>  <title>
4-9794

>  <rigid docking scores>
-16.6128

>  <InChIKey>
RDKHYLQWKQVZGC-UHFFFAOYSA-N

>  <SureChEMBL Patents>
SCHEMBL18711437

>  <Pubchem>
126758464

$$$$
atoms 24 bonds 27
dotmatics
mol io
 24 27  0  0  0  0  0  0  0  0999 V2000
    5.4583   -2.9548    0.0000 C   0  0  0  0  0  0  0  0  0  0  0  0
    5.0477   -2.2370    0.0000 C   0  0  0  0  0  0  0  0  0  0  0  0
    4.2207   -2.2337    0.0000 N   0  0  0  0  0  0  0  0  0  0  0  0
    3.7319   -2.9008    0.0000 C   0  0  0  0  0  0  0  0  0  0  0  0
    2.9464   -2.6421    0.0000 C   0  0  0  0  0  0  0  0  0  0  0  0
    2.9497   -1.8151    0.0000 C   0  0  0  0  0  0  0  0  0  0  0  0
    2.1622   -2.0675    0.0000 C   0  0  0  0  0  0  0  0  0  0  0  0
    1.6788   -1.3965    0.0000 C   0  0  0  0  0  0  0  0  0  0  0  0
    2.1675   -0.7294    0.0000 N   0  0  0  0  0  0  0  0  0  0  0  0
    1.9151    0.0581    0.0000 C   0  0  0  0  0  0  0  0  0  0  0  0
    1.1069    0.2333    0.0000 O   0  0  0  0  0  0  0  0  0  0  0  0
    2.4709    0.6705    0.0000 N   0  0  0  0  0  0  0  0  0  0  0  0
    2.2185    1.4580    0.0000 C   0  0  0  0  0  0  0  0  0  0  0  0
    2.7096    2.1266    0.0000 C   0  0  0  0  0  0  0  0  0  0  0  0
    2.2185    2.7951    0.0000 O   0  0  0  0  0  0  0  0  0  0  0  0
    1.4317    2.5407    0.0000 C   0  0  0  0  0  0  0  0  0  0  0  0
    0.7158    2.9548    0.0000 C   0  0  0  0  0  0  0  0  0  0  0  0
    0.0000    2.5407    0.0000 C   0  0  0  0  0  0  0  0  0  0  0  0
    0.0000    1.7124    0.0000 C   0  0  0  0  0  0  0  0  0  0  0  0
    0.7158    1.2983    0.0000 C   0  0  0  0  0  0  0  0  0  0  0  0
    1.4317    1.7124    0.0000 C   0  0  0  0  0  0  0  0  0  0  0  0
    2.9530   -0.9881    0.0000 C   0  0  0  0  0  0  0  0  0  0  0  0
    3.7373   -1.5627    0.0000 C   0  0  0  0  0  0  0  0  0  0  0  0
    3.9960   -0.7772    0.0000 O   0  0  0  0  0  0  0  0  0  0  0  0
  1  2  1  0  0  0
  2  3  1  0  0  0
  3 23  1  0  0  0
  3  4  1  0  0  0
  4  5  1  0  0  0
  5  6  1  0  0  0
  6 22  1  0  0  0
  6  7  1  0  0  0
  7  8  1  0  0  0
  8  9  1  0  0  0
  9 10  1  0  0  0
 10 11  2  0  0  0
 10 12  1  0  0  0
 12 13  1  0  0  0
 13 21  1  0  0  0
 13 14  2  0  0  0
 14 15  1  0  0  0
 15 16  1  0  0  0
 16 21  1  0  0  0
 16 17  2  0  0  0
 17 18  1  0  0  0
 18 19  2  0  0  0
 19 20  1  0  0  0
 20 21  2  0  0  0
  9 22  1  0  0  0
  6 23  1  0  0  0
 23 24  2  0  0  0
M  END
>  <Entry>
465

>  <title>
4-9937

>  <rigid docking scores>
-16.8034

>  <InChIKey>
KFPNRPAXLDIMTI-UHFFFAOYSA-N

$$$$
atoms 21 bonds 23
dotmatics
mol io
 21 23  0  0  0  0  0  0  0  0999 V2000
    1.4923   -2.3469    0.0000 C   0  0  0  0  0  0  0  0  0  0  0  0
    1.1573   -1.5907    0.0000 C   0  0  0  0  0  0  0  0  0  0  0  0
    0.3350   -1.5028    0.0000 C   0  0  0  0  0  0  0  0  0  0  0  0
    0.0000   -0.7467    0.0000 N   0  0  0  0  0  0  0  0  0  0  0  0
    0.4873   -0.0785    0.0000 C   0  0  0  0  0  0  0  0  0  0  0  0
    1.3096   -0.1665    0.0000 C   0  0  0  0  0  0  0  0  0  0  0  0
    1.7969    0.5017    0.0000 C   0  0  0  0  0  0  0  0  0  0  0  0
    2.6227    0.5017    0.0000 C   0  0  0  0  0  0  0  0  0  0  0  0
    2.8763    1.2862    0.0000 C   0  0  0  0  0  0  0  0  0  0  0  0
    3.6639    1.5386    0.0000 C   0  0  0  0  0  0  0  0  0  0  0  0
    3.8391    2.3469    0.0000 O   0  0  0  0  0  0  0  0  0  0  0  0
    4.2763    0.9828    0.0000 N   0  0  0  0  0  0  0  0  0  0  0  0
    5.0638    1.2352    0.0000 C   0  0  0  0  0  0  0  0  0  0  0  0
    5.2390    2.0435    0.0000 C   0  0  0  0  0  0  0  0  0  0  0  0
    6.0265    2.2959    0.0000 C   0  0  0  0  0  0  0  0  0  0  0  0
    6.6389    1.7400    0.0000 O   0  0  0  0  0  0  0  0  0  0  0  0
    6.4637    0.9318    0.0000 C   0  0  0  0  0  0  0  0  0  0  0  0
    5.6762    0.6794    0.0000 C   0  0  0  0  0  0  0  0  0  0  0  0
    2.2098    1.7758    0.0000 N   0  0  0  0  0  0  0  0  0  0  0  0
    1.5433    1.2862    0.0000 N   0  0  0  0  0  0  0  0  0  0  0  0
    1.6446   -0.9226    0.0000 C   0  0  0  0  0  0  0  0  0  0  0  0
  1  2  1  0  0  0
  2 21  1  0  0  0
  2  3  2  0  0  0
  3  4  1  0  0  0
  4  5  2  0  0  0
  5  6  1  0  0  0
  6  7  1  0  0  0
  7 20  2  0  0  0
  7  8  1  0  0  0
  8  9  2  0  0  0
  9 10  1  0  0  0
 10 11  2  0  0  0
 10 12  1  0  0  0
 12 13  1  0  0  0
 13 18  1  0  0  0
 13 14  1  0  0  0
 14 15  1  0  0  0
 15 16  1  0  0  0
 16 17  1  0  0  0
 17 18  1  0  0  0
  9 19  1  0  0  0
 19 20  1  0  0  0
  6 21  2  0  0  0
M  END
>  <Entry>
466

>  <title>
5-164

>  <rigid docking scores>
-16.2128

>  <InChIKey>
MQJKWGSZNOYDPU-UHFFFAOYSA-N

$$$$
atoms 23 bonds 26
dotmatics
mol io
 23 26  0  0  0  0  0  0  0  0999 V2000
    0.0000   -2.1361    0.0000 C   0  0  0  0  0  0  0  0  0  0  0  0
    0.3310   -1.3782    0.0000 C   0  0  0  0  0  0  0  0  0  0  0  0
    1.1528   -1.2859    0.0000 C   0  0  0  0  0  0  0  0  0  0  0  0
    1.6437   -1.9514    0.0000 C   0  0  0  0  0  0  0  0  0  0  0  0
    2.4655   -1.8591    0.0000 C   0  0  0  0  0  0  0  0  0  0  0  0
    2.7965   -1.1012    0.0000 N   0  0  0  0  0  0  0  0  0  0  0  0
    2.3779   -0.3880    0.0000 C   0  0  0  0  0  0  0  0  0  0  0  0
    2.9268    0.2305    0.0000 C   0  0  0  0  0  0  0  0  0  0  0  0
    3.6847   -0.1004    0.0000 C   0  0  0  0  0  0  0  0  0  0  0  0
    4.3979    0.3182    0.0000 N   0  0  0  0  0  0  0  0  0  0  0  0
    4.3920    1.1451    0.0000 C   0  0  0  0  0  0  0  0  0  0  0  0
    5.1079    1.5593    0.0000 N   0  0  0  0  0  0  0  0  0  0  0  0
    5.1079    2.3875    0.0000 C   0  0  0  0  0  0  0  0  0  0  0  0
    4.3920    2.8016    0.0000 N   0  0  0  0  0  0  0  0  0  0  0  0
    3.6703    2.3875    0.0000 C   0  0  0  0  0  0  0  0  0  0  0  0
    2.9544    2.8016    0.0000 C   0  0  0  0  0  0  0  0  0  0  0  0
    2.2386    2.3875    0.0000 C   0  0  0  0  0  0  0  0  0  0  0  0
    2.2386    1.5593    0.0000 C   0  0  0  0  0  0  0  0  0  0  0  0
    2.9544    1.1451    0.0000 C   0  0  0  0  0  0  0  0  0  0  0  0
    3.6703    1.5593    0.0000 C   0  0  0  0  0  0  0  0  0  0  0  0
    3.6041   -0.9235    0.0000 C   0  0  0  0  0  0  0  0  0  0  0  0
    1.3127   -2.7093    0.0000 C   0  0  0  0  0  0  0  0  0  0  0  0
    0.4909   -2.8016    0.0000 C   0  0  0  0  0  0  0  0  0  0  0  0
  1 23  1  0  0  0
  1  2  2  0  0  0
  2  3  1  0  0  0
  3  4  2  0  0  0
  4  5  1  0  0  0
  5  6  1  0  0  0
  6 21  1  0  0  0
  6  7  1  0  0  0
  7  8  1  0  0  0
  8  9  1  0  0  0
  9 10  1  0  0  0
 10 11  1  0  0  0
 11 20  1  0  0  0
 11 12  2  0  0  0
 12 13  1  0  0  0
 13 14  2  0  0  0
 14 15  1  0  0  0
 15 20  1  0  0  0
 15 16  2  0  0  0
 16 17  1  0  0  0
 17 18  2  0  0  0
 18 19  1  0  0  0
 19 20  2  0  0  0
  9 21  1  0  0  0
  4 22  1  0  0  0
 22 23  2  0  0  0
M  END
>  <Entry>
467

>  <title>
5-406

>  <rigid docking scores>
-16.2773

>  <InChIKey>
VJHRTMUUHCCRHK-UHFFFAOYSA-N

$$$$
atoms 20 bonds 22
dotmatics
mol io
 20 22  0  0  0  0  0  0  0  0999 V2000
    5.5081    0.2200    0.0000 C   0  0  0  0  0  0  0  0  0  0  0  0
    5.5081   -0.6070    0.0000 C   0  0  0  0  0  0  0  0  0  0  0  0
    6.2243   -1.0205    0.0000 C   0  0  0  0  0  0  0  0  0  0  0  0
    6.2243   -1.8475    0.0000 C   0  0  0  0  0  0  0  0  0  0  0  0
    5.5081   -2.2610    0.0000 C   0  0  0  0  0  0  0  0  0  0  0  0
    4.7919   -1.8475    0.0000 C   0  0  0  0  0  0  0  0  0  0  0  0
    4.7919   -1.0205    0.0000 C   0  0  0  0  0  0  0  0  0  0  0  0
    4.0757   -0.6070    0.0000 C   0  0  0  0  0  0  0  0  0  0  0  0
    3.3202   -0.9434    0.0000 N   0  0  0  0  0  0  0  0  0  0  0  0
    2.7669   -0.3288    0.0000 C   0  0  0  0  0  0  0  0  0  0  0  0
    1.9444   -0.4152    0.0000 C   0  0  0  0  0  0  0  0  0  0  0  0
    1.4583    0.2538    0.0000 C   0  0  0  0  0  0  0  0  0  0  0  0
    0.6358    0.1674    0.0000 C   0  0  0  0  0  0  0  0  0  0  0  0
    0.1497    0.8364    0.0000 C   0  0  0  0  0  0  0  0  0  0  0  0
    0.4861    1.5919    0.0000 N   0  0  0  0  0  0  0  0  0  0  0  0
    0.0000    2.2610    0.0000 C   0  0  0  0  0  0  0  0  0  0  0  0
    1.3086    1.6784    0.0000 C   0  0  0  0  0  0  0  0  0  0  0  0
    1.7947    1.0093    0.0000 C   0  0  0  0  0  0  0  0  0  0  0  0
    3.1804    0.3874    0.0000 N   0  0  0  0  0  0  0  0  0  0  0  0
    3.9893    0.2155    0.0000 O   0  0  0  0  0  0  0  0  0  0  0  0
  1  2  1  0  0  0
  2  7  1  0  0  0
  2  3  2  0  0  0
  3  4  1  0  0  0
  4  5  2  0  0  0
  5  6  1  0  0  0
  6  7  2  0  0  0
  7  8  1  0  0  0
  8 20  1  0  0  0
  8  9  2  0  0  0
  9 10  1  0  0  0
 10 11  1  0  0  0
 11 12  1  0  0  0
 12 18  1  0  0  0
 12 13  1  0  0  0
 13 14  1  0  0  0
 14 15  1  0  0  0
 15 16  1  0  0  0
 15 17  1  0  0  0
 17 18  1  0  0  0
 10 19  2  0  0  0
 19 20  1  0  0  0
M  END
>  <Entry>
468

>  <title>
5-570

>  <rigid docking scores>
-18.6738

>  <InChIKey>
UZPYXOXRTYTFTA-UHFFFAOYSA-N

$$$$
atoms 24 bonds 27
dotmatics
mol io
 24 27  0  0  0  0  0  0  0  0999 V2000
    6.2478    2.2020    0.0000 C   0  0  0  0  0  0  0  0  0  0  0  0
    5.9120    1.4462    0.0000 N   0  0  0  0  0  0  0  0  0  0  0  0
    6.3262    0.7303    0.0000 C   0  0  0  0  0  0  0  0  0  0  0  0
    5.7733    0.1153    0.0000 C   0  0  0  0  0  0  0  0  0  0  0  0
    5.0175    0.4510    0.0000 C   0  0  0  0  0  0  0  0  0  0  0  0
    4.3017    0.0369    0.0000 N   0  0  0  0  0  0  0  0  0  0  0  0
    3.5851    0.4497    0.0000 C   0  0  0  0  0  0  0  0  0  0  0  0
    3.5844    1.2767    0.0000 O   0  0  0  0  0  0  0  0  0  0  0  0
    2.8693    0.0356    0.0000 C   0  0  0  0  0  0  0  0  0  0  0  0
    2.1534    0.4497    0.0000 N   0  0  0  0  0  0  0  0  0  0  0  0
    1.4317    0.0356    0.0000 C   0  0  0  0  0  0  0  0  0  0  0  0
    0.7158    0.4497    0.0000 C   0  0  0  0  0  0  0  0  0  0  0  0
    0.0000    0.0356    0.0000 C   0  0  0  0  0  0  0  0  0  0  0  0
    0.0000   -0.7926    0.0000 C   0  0  0  0  0  0  0  0  0  0  0  0
    0.7158   -1.2068    0.0000 C   0  0  0  0  0  0  0  0  0  0  0  0
    1.4317   -0.7926    0.0000 C   0  0  0  0  0  0  0  0  0  0  0  0
    2.1534   -1.2068    0.0000 N   0  0  0  0  0  0  0  0  0  0  0  0
    2.8693   -0.7926    0.0000 C   0  0  0  0  0  0  0  0  0  0  0  0
    3.5851   -1.2068    0.0000 N   0  0  0  0  0  0  0  0  0  0  0  0
    4.3409   -0.8711    0.0000 C   0  0  0  0  0  0  0  0  0  0  0  0
    4.8938   -1.4861    0.0000 C   0  0  0  0  0  0  0  0  0  0  0  0
    4.4796   -2.2020    0.0000 C   0  0  0  0  0  0  0  0  0  0  0  0
    3.6709   -2.0293    0.0000 C   0  0  0  0  0  0  0  0  0  0  0  0
    5.1033    1.2735    0.0000 C   0  0  0  0  0  0  0  0  0  0  0  0
  1  2  1  0  0  0
  2 24  1  0  0  0
  2  3  1  0  0  0
  3  4  1  0  0  0
  4  5  1  0  0  0
  5  6  1  0  0  0
  6  7  1  0  0  0
  7  8  2  0  0  0
  7  9  1  0  0  0
  9 18  1  0  0  0
  9 10  2  0  0  0
 10 11  1  0  0  0
 11 16  1  0  0  0
 11 12  2  0  0  0
 12 13  1  0  0  0
 13 14  2  0  0  0
 14 15  1  0  0  0
 15 16  2  0  0  0
 16 17  1  0  0  0
 17 18  2  0  0  0
 18 19  1  0  0  0
 19 23  1  0  0  0
 19 20  1  0  0  0
 20 21  1  0  0  0
 21 22  1  0  0  0
 22 23  1  0  0  0
  5 24  1  0  0  0
M  END
>  <Entry>
469

>  <title>
5-802

>  <rigid docking scores>
-20.2625

>  <InChIKey>
XDZHXJMPNLFYKU-UHFFFAOYSA-N

$$$$
atoms 22 bonds 24
dotmatics
mol io
 22 24  0  0  0  0  0  0  0  0999 V2000
    5.2087    2.5647    0.0000 C   0  0  0  0  0  0  0  0  0  0  0  0
    4.4925    2.1512    0.0000 C   0  0  0  0  0  0  0  0  0  0  0  0
    3.7763    2.5647    0.0000 O   0  0  0  0  0  0  0  0  0  0  0  0
    4.4925    1.3242    0.0000 N   0  0  0  0  0  0  0  0  0  0  0  0
    5.2087    0.9107    0.0000 C   0  0  0  0  0  0  0  0  0  0  0  0
    5.2087    0.0837    0.0000 C   0  0  0  0  0  0  0  0  0  0  0  0
    4.4925   -0.3298    0.0000 N   0  0  0  0  0  0  0  0  0  0  0  0
    4.4925   -1.1568    0.0000 C   0  0  0  0  0  0  0  0  0  0  0  0
    3.7763   -1.5703    0.0000 C   0  0  0  0  0  0  0  0  0  0  0  0
    3.6898   -2.3928    0.0000 N   0  0  0  0  0  0  0  0  0  0  0  0
    2.8809   -2.5647    0.0000 O   0  0  0  0  0  0  0  0  0  0  0  0
    2.4674   -1.8485    0.0000 C   0  0  0  0  0  0  0  0  0  0  0  0
    1.6449   -1.7621    0.0000 C   0  0  0  0  0  0  0  0  0  0  0  0
    1.1588   -2.4311    0.0000 C   0  0  0  0  0  0  0  0  0  0  0  0
    0.3364   -2.3447    0.0000 C   0  0  0  0  0  0  0  0  0  0  0  0
    0.0000   -1.5892    0.0000 C   0  0  0  0  0  0  0  0  0  0  0  0
    0.4861   -0.9201    0.0000 C   0  0  0  0  0  0  0  0  0  0  0  0
    1.3086   -1.0066    0.0000 C   0  0  0  0  0  0  0  0  0  0  0  0
    1.7947   -0.3375    0.0000 F   0  0  0  0  0  0  0  0  0  0  0  0
    3.0208   -1.2339    0.0000 N   0  0  0  0  0  0  0  0  0  0  0  0
    3.7763    0.0837    0.0000 C   0  0  0  0  0  0  0  0  0  0  0  0
    3.7763    0.9107    0.0000 C   0  0  0  0  0  0  0  0  0  0  0  0
  1  2  1  0  0  0
  2  3  2  0  0  0
  2  4  1  0  0  0
  4 22  1  0  0  0
  4  5  1  0  0  0
  5  6  1  0  0  0
  6  7  1  0  0  0
  7  8  1  0  0  0
  8  9  1  0  0  0
  9 20  1  0  0  0
  9 10  2  0  0  0
 10 11  1  0  0  0
 11 12  1  0  0  0
 12 13  1  0  0  0
 13 18  1  0  0  0
 13 14  2  0  0  0
 14 15  1  0  0  0
 15 16  2  0  0  0
 16 17  1  0  0  0
 17 18  2  0  0  0
 18 19  1  0  0  0
 12 20  2  0  0  0
  7 21  1  0  0  0
 21 22  1  0  0  0
M  END
>  <Entry>
470

>  <title>
5-1414

>  <rigid docking scores>
-15.9507

>  <InChIKey>
YDWFWXAIIXYXFB-UHFFFAOYSA-N

>  <Pubchem>
42879600

$$$$
atoms 20 bonds 22
dotmatics
mol io
 20 22  0  0  0  0  0  0  0  0999 V2000
   -3.6445    4.1567    0.0000 C   0  0  0  0  0  0  0  0  0  0  0  0
   -2.8175    4.1567    0.0000 C   0  0  0  0  0  0  0  0  0  0  0  0
   -2.4040    4.8729    0.0000 O   0  0  0  0  0  0  0  0  0  0  0  0
   -2.4040    3.4405    0.0000 N   0  0  0  0  0  0  0  0  0  0  0  0
   -1.5770    3.4405    0.0000 C   0  0  0  0  0  0  0  0  0  0  0  0
   -1.0909    4.1095    0.0000 C   0  0  0  0  0  0  0  0  0  0  0  0
   -0.3044    3.8540    0.0000 C   0  0  0  0  0  0  0  0  0  0  0  0
   -0.3044    3.0270    0.0000 N   0  0  0  0  0  0  0  0  0  0  0  0
    0.3647    2.5409    0.0000 C   0  0  0  0  0  0  0  0  0  0  0  0
    1.1202    2.8772    0.0000 C   0  0  0  0  0  0  0  0  0  0  0  0
    1.7893    2.3911    0.0000 C   0  0  0  0  0  0  0  0  0  0  0  0
    1.7028    1.5687    0.0000 C   0  0  0  0  0  0  0  0  0  0  0  0
    2.3719    1.0826    0.0000 C   0  0  0  0  0  0  0  0  0  0  0  0
    3.1584    1.3381    0.0000 C   0  0  0  0  0  0  0  0  0  0  0  0
    3.6445    0.6691    0.0000 C   0  0  0  0  0  0  0  0  0  0  0  0
    3.1584   -0.0000    0.0000 C   0  0  0  0  0  0  0  0  0  0  0  0
    2.3719    0.2556    0.0000 O   0  0  0  0  0  0  0  0  0  0  0  0
    0.9473    1.2323    0.0000 N   0  0  0  0  0  0  0  0  0  0  0  0
    0.2782    1.7184    0.0000 N   0  0  0  0  0  0  0  0  0  0  0  0
   -1.0909    2.7714    0.0000 C   0  0  0  0  0  0  0  0  0  0  0  0
  1  2  1  0  0  0
  2  3  2  0  0  0
  2  4  1  0  0  0
  4  5  1  0  0  0
  5 20  1  0  0  0
  5  6  1  0  0  0
  6  7  1  0  0  0
  7  8  1  0  0  0
  8  9  1  0  0  0
  9 19  1  0  0  0
  9 10  2  0  0  0
 10 11  1  0  0  0
 11 12  2  0  0  0
 12 13  1  0  0  0
 13 17  1  0  0  0
 13 14  2  0  0  0
 14 15  1  0  0  0
 15 16  2  0  0  0
 16 17  1  0  0  0
 12 18  1  0  0  0
 18 19  2  0  0  0
  8 20  1  0  0  0
M  END
>  <Entry>
471

>  <title>
5-1422

>  <rigid docking scores>
-17.1992

>  <InChIKey>
GHNISPDIFJHMSS-UHFFFAOYSA-N

$$$$
atoms 21 bonds 23
dotmatics
mol io
 21 23  0  0  0  0  0  0  0  0999 V2000
    4.1412    3.1607    0.0000 C   0  0  0  0  0  0  0  0  0  0  0  0
    3.7271    2.4449    0.0000 C   0  0  0  0  0  0  0  0  0  0  0  0
    4.1412    1.7290    0.0000 C   0  0  0  0  0  0  0  0  0  0  0  0
    3.7271    1.0132    0.0000 C   0  0  0  0  0  0  0  0  0  0  0  0
    4.1412    0.2974    0.0000 N   0  0  0  0  0  0  0  0  0  0  0  0
    3.7284   -0.4192    0.0000 C   0  0  0  0  0  0  0  0  0  0  0  0
    4.1425   -1.1350    0.0000 C   0  0  0  0  0  0  0  0  0  0  0  0
    3.7296   -1.8516    0.0000 C   0  0  0  0  0  0  0  0  0  0  0  0
    4.0666   -2.6068    0.0000 C   0  0  0  0  0  0  0  0  0  0  0  0
    3.4525   -3.1607    0.0000 C   0  0  0  0  0  0  0  0  0  0  0  0
    2.7360   -2.7479    0.0000 C   0  0  0  0  0  0  0  0  0  0  0  0
    2.9072   -1.9388    0.0000 S   0  0  0  0  0  0  0  0  0  0  0  0
    2.8989    1.0132    0.0000 N   0  0  0  0  0  0  0  0  0  0  0  0
    2.4847    1.7290    0.0000 C   0  0  0  0  0  0  0  0  0  0  0  0
    1.6565    1.7290    0.0000 C   0  0  0  0  0  0  0  0  0  0  0  0
    1.2424    1.0132    0.0000 C   0  0  0  0  0  0  0  0  0  0  0  0
    0.4141    1.0132    0.0000 C   0  0  0  0  0  0  0  0  0  0  0  0
    0.0000    1.7290    0.0000 C   0  0  0  0  0  0  0  0  0  0  0  0
    0.4141    2.4449    0.0000 N   0  0  0  0  0  0  0  0  0  0  0  0
    1.2424    2.4449    0.0000 C   0  0  0  0  0  0  0  0  0  0  0  0
    2.8989    2.4449    0.0000 N   0  0  0  0  0  0  0  0  0  0  0  0
  1  2  1  0  0  0
  2 21  1  0  0  0
  2  3  2  0  0  0
  3  4  1  0  0  0
  4  5  1  0  0  0
  5  6  1  0  0  0
  6  7  1  0  0  0
  7  8  1  0  0  0
  8 12  1  0  0  0
  8  9  2  0  0  0
  9 10  1  0  0  0
 10 11  2  0  0  0
 11 12  1  0  0  0
  4 13  2  0  0  0
 13 14  1  0  0  0
 14 15  1  0  0  0
 15 20  1  0  0  0
 15 16  2  0  0  0
 16 17  1  0  0  0
 17 18  2  0  0  0
 18 19  1  0  0  0
 19 20  2  0  0  0
 14 21  2  0  0  0
M  END
>  <Entry>
472

>  <title>
5-2186

>  <rigid docking scores>
-18.1149

>  <InChIKey>
GSFXVCBWYQXWCT-UHFFFAOYSA-N

$$$$
atoms 22 bonds 24
dotmatics
mol io
 22 24  0  0  0  0  0  0  0  0999 V2000
    0.0000    2.6892    0.0000 N   0  0  0  0  0  0  0  0  0  0  0  0
    0.7158    2.2751    0.0000 C   0  0  0  0  0  0  0  0  0  0  0  0
    1.4324    2.6879    0.0000 O   0  0  0  0  0  0  0  0  0  0  0  0
    0.7151    1.4481    0.0000 C   0  0  0  0  0  0  0  0  0  0  0  0
    1.4310    1.0339    0.0000 C   0  0  0  0  0  0  0  0  0  0  0  0
    1.4302    0.2069    0.0000 C   0  0  0  0  0  0  0  0  0  0  0  0
    0.7137   -0.2059    0.0000 O   0  0  0  0  0  0  0  0  0  0  0  0
    2.1461   -0.2072    0.0000 N   0  0  0  0  0  0  0  0  0  0  0  0
    2.1461   -1.0354    0.0000 C   0  0  0  0  0  0  0  0  0  0  0  0
    2.8619   -1.4495    0.0000 C   0  0  0  0  0  0  0  0  0  0  0  0
    3.5778   -1.0354    0.0000 C   0  0  0  0  0  0  0  0  0  0  0  0
    3.5778   -0.2072    0.0000 C   0  0  0  0  0  0  0  0  0  0  0  0
    4.2995    0.2069    0.0000 N   0  0  0  0  0  0  0  0  0  0  0  0
    5.0154   -0.2072    0.0000 C   0  0  0  0  0  0  0  0  0  0  0  0
    5.7312    0.2069    0.0000 O   0  0  0  0  0  0  0  0  0  0  0  0
    5.0154   -1.0354    0.0000 C   0  0  0  0  0  0  0  0  0  0  0  0
    5.7321   -1.4477    0.0000 C   0  0  0  0  0  0  0  0  0  0  0  0
    5.7333   -2.2747    0.0000 C   0  0  0  0  0  0  0  0  0  0  0  0
    5.0176   -2.6892    0.0000 C   0  0  0  0  0  0  0  0  0  0  0  0
    4.3008   -2.2767    0.0000 C   0  0  0  0  0  0  0  0  0  0  0  0
    4.2995   -1.4495    0.0000 C   0  0  0  0  0  0  0  0  0  0  0  0
    2.8619    0.2069    0.0000 C   0  0  0  0  0  0  0  0  0  0  0  0
  1  2  1  0  0  0
  2  3  2  0  0  0
  2  4  1  0  0  0
  4  5  1  0  0  0
  5  6  1  0  0  0
  6  7  2  0  0  0
  6  8  1  0  0  0
  8 22  1  0  0  0
  8  9  1  0  0  0
  9 10  1  0  0  0
 10 11  1  0  0  0
 11 21  1  0  0  0
 11 12  2  0  0  0
 12 13  1  0  0  0
 13 14  1  0  0  0
 14 15  2  0  0  0
 14 16  1  0  0  0
 16 21  1  0  0  0
 16 17  2  0  0  0
 17 18  1  0  0  0
 18 19  2  0  0  0
 19 20  1  0  0  0
 20 21  2  0  0  0
 12 22  1  0  0  0
M  END
>  <Entry>
473

>  <title>
5-3216

>  <rigid docking scores>
-18.8609

>  <InChIKey>
FINLBVGIRRWEFC-UHFFFAOYSA-N

$$$$
atoms 20 bonds 22
dotmatics
mol io
 20 22  0  0  0  0  0  0  0  0999 V2000
    4.4925    2.3580    0.0000 C   0  0  0  0  0  0  0  0  0  0  0  0
    4.4925    1.5310    0.0000 C   0  0  0  0  0  0  0  0  0  0  0  0
    5.2087    1.1175    0.0000 C   0  0  0  0  0  0  0  0  0  0  0  0
    5.2087    0.2905    0.0000 C   0  0  0  0  0  0  0  0  0  0  0  0
    4.4925   -0.1230    0.0000 N   0  0  0  0  0  0  0  0  0  0  0  0
    4.4925   -0.9500    0.0000 C   0  0  0  0  0  0  0  0  0  0  0  0
    5.2087   -1.3635    0.0000 O   0  0  0  0  0  0  0  0  0  0  0  0
    3.7763   -1.3635    0.0000 C   0  0  0  0  0  0  0  0  0  0  0  0
    3.6898   -2.1860    0.0000 C   0  0  0  0  0  0  0  0  0  0  0  0
    2.8809   -2.3580    0.0000 O   0  0  0  0  0  0  0  0  0  0  0  0
    2.4674   -1.6418    0.0000 C   0  0  0  0  0  0  0  0  0  0  0  0
    1.6449   -1.5553    0.0000 C   0  0  0  0  0  0  0  0  0  0  0  0
    1.1588   -2.2244    0.0000 C   0  0  0  0  0  0  0  0  0  0  0  0
    0.3364   -2.1379    0.0000 N   0  0  0  0  0  0  0  0  0  0  0  0
    0.0000   -1.3824    0.0000 C   0  0  0  0  0  0  0  0  0  0  0  0
    0.4861   -0.7134    0.0000 C   0  0  0  0  0  0  0  0  0  0  0  0
    1.3086   -0.7998    0.0000 N   0  0  0  0  0  0  0  0  0  0  0  0
    3.0208   -1.0272    0.0000 N   0  0  0  0  0  0  0  0  0  0  0  0
    3.7763    0.2905    0.0000 C   0  0  0  0  0  0  0  0  0  0  0  0
    3.7763    1.1175    0.0000 C   0  0  0  0  0  0  0  0  0  0  0  0
  1  2  1  0  0  0
  2 20  1  0  0  0
  2  3  1  0  0  0
  3  4  1  0  0  0
  4  5  1  0  0  0
  5  6  1  0  0  0
  6  7  2  0  0  0
  6  8  1  0  0  0
  8 18  1  0  0  0
  8  9  2  0  0  0
  9 10  1  0  0  0
 10 11  1  0  0  0
 11 12  1  0  0  0
 12 17  1  0  0  0
 12 13  2  0  0  0
 13 14  1  0  0  0
 14 15  2  0  0  0
 15 16  1  0  0  0
 16 17  2  0  0  0
 11 18  2  0  0  0
  5 19  1  0  0  0
 19 20  1  0  0  0
M  END
>  <Entry>
474

>  <title>
5-4414

>  <rigid docking scores>
-15.5814

>  <InChIKey>
HQDXNQYEJVTWKS-UHFFFAOYSA-N

$$$$
atoms 20 bonds 22
dotmatics
mol io
 20 22  0  0  0  0  0  0  0  0999 V2000
   -3.5439    1.4324    0.0000 C   0  0  0  0  0  0  0  0  0  0  0  0
   -3.1304    0.7162    0.0000 C   0  0  0  0  0  0  0  0  0  0  0  0
   -3.5439    0.0000    0.0000 O   0  0  0  0  0  0  0  0  0  0  0  0
   -2.3034    0.7162    0.0000 N   0  0  0  0  0  0  0  0  0  0  0  0
   -1.8899    1.4324    0.0000 C   0  0  0  0  0  0  0  0  0  0  0  0
   -1.0629    1.4324    0.0000 C   0  0  0  0  0  0  0  0  0  0  0  0
   -0.6494    0.7162    0.0000 C   0  0  0  0  0  0  0  0  0  0  0  0
    0.1776    0.7162    0.0000 C   0  0  0  0  0  0  0  0  0  0  0  0
    0.6637    1.3853    0.0000 N   0  0  0  0  0  0  0  0  0  0  0  0
    1.4503    1.1297    0.0000 C   0  0  0  0  0  0  0  0  0  0  0  0
    2.1193    1.6158    0.0000 C   0  0  0  0  0  0  0  0  0  0  0  0
    2.0329    2.4383    0.0000 C   0  0  0  0  0  0  0  0  0  0  0  0
    2.7019    2.9244    0.0000 C   0  0  0  0  0  0  0  0  0  0  0  0
    3.4574    2.5880    0.0000 C   0  0  0  0  0  0  0  0  0  0  0  0
    3.5439    1.7655    0.0000 C   0  0  0  0  0  0  0  0  0  0  0  0
    2.8748    1.2794    0.0000 C   0  0  0  0  0  0  0  0  0  0  0  0
    1.4503    0.3027    0.0000 C   0  0  0  0  0  0  0  0  0  0  0  0
    0.6637    0.0471    0.0000 N   0  0  0  0  0  0  0  0  0  0  0  0
   -1.0629    0.0000    0.0000 C   0  0  0  0  0  0  0  0  0  0  0  0
   -1.8899    0.0000    0.0000 C   0  0  0  0  0  0  0  0  0  0  0  0
  1  2  1  0  0  0
  2  3  2  0  0  0
  2  4  1  0  0  0
  4 20  1  0  0  0
  4  5  1  0  0  0
  5  6  1  0  0  0
  6  7  1  0  0  0
  7  8  1  0  0  0
  8 18  1  0  0  0
  8  9  2  0  0  0
  9 10  1  0  0  0
 10 11  1  0  0  0
 11 16  1  0  0  0
 11 12  2  0  0  0
 12 13  1  0  0  0
 13 14  2  0  0  0
 14 15  1  0  0  0
 15 16  2  0  0  0
 10 17  2  0  0  0
 17 18  1  0  0  0
  7 19  1  0  0  0
 19 20  1  0  0  0
M  END
>  <Entry>
475

>  <title>
5-4421

>  <rigid docking scores>
-16.434

>  <InChIKey>
ZNIILSFCUVFVRL-UHFFFAOYSA-N

$$$$
atoms 19 bonds 21
dotmatics
mol io
 19 21  0  0  0  0  0  0  0  0999 V2000
    6.6222    1.0739    0.0000 O   0  0  0  0  0  0  0  0  0  0  0  0
    6.2081    0.3581    0.0000 C   0  0  0  0  0  0  0  0  0  0  0  0
    6.6222   -0.3577    0.0000 C   0  0  0  0  0  0  0  0  0  0  0  0
    6.2081   -1.0736    0.0000 C   0  0  0  0  0  0  0  0  0  0  0  0
    5.3799   -1.0736    0.0000 C   0  0  0  0  0  0  0  0  0  0  0  0
    4.9657   -0.3577    0.0000 C   0  0  0  0  0  0  0  0  0  0  0  0
    4.1375   -0.3577    0.0000 C   0  0  0  0  0  0  0  0  0  0  0  0
    3.7234   -1.0736    0.0000 C   0  0  0  0  0  0  0  0  0  0  0  0
    2.8951   -1.0736    0.0000 C   0  0  0  0  0  0  0  0  0  0  0  0
    2.4810   -0.3577    0.0000 C   0  0  0  0  0  0  0  0  0  0  0  0
    1.6540   -0.3577    0.0000 N   0  0  0  0  0  0  0  0  0  0  0  0
    1.2405   -1.0739    0.0000 C   0  0  0  0  0  0  0  0  0  0  0  0
    0.4135   -1.0739    0.0000 C   0  0  0  0  0  0  0  0  0  0  0  0
    0.0000   -0.3577    0.0000 C   0  0  0  0  0  0  0  0  0  0  0  0
    0.4135    0.3585    0.0000 C   0  0  0  0  0  0  0  0  0  0  0  0
    1.2405    0.3585    0.0000 C   0  0  0  0  0  0  0  0  0  0  0  0
    2.8951    0.3581    0.0000 N   0  0  0  0  0  0  0  0  0  0  0  0
    3.7234    0.3581    0.0000 N   0  0  0  0  0  0  0  0  0  0  0  0
    5.3799    0.3581    0.0000 C   0  0  0  0  0  0  0  0  0  0  0  0
  1  2  1  0  0  0
  2 19  1  0  0  0
  2  3  2  0  0  0
  3  4  1  0  0  0
  4  5  2  0  0  0
  5  6  1  0  0  0
  6  7  1  0  0  0
  7 18  1  0  0  0
  7  8  2  0  0  0
  8  9  1  0  0  0
  9 10  2  0  0  0
 10 11  1  0  0  0
 11 16  1  0  0  0
 11 12  1  0  0  0
 12 13  1  0  0  0
 13 14  1  0  0  0
 14 15  1  0  0  0
 15 16  1  0  0  0
 10 17  1  0  0  0
 17 18  2  0  0  0
  6 19  2  0  0  0
M  END
>  <Entry>
476

>  <title>
1-4577

>  <rigid docking scores>
-15.5531

>  <InChIKey>
JJAQTAHHZBBKAC-UHFFFAOYSA-N

$$$$
atoms 21 bonds 24
dotmatics
mol io
 21 24  0  0  0  0  0  0  0  0999 V2000
    2.8785   -1.1653    0.0000 O   0  0  0  0  0  0  0  0  0  0  0  0
    2.1594   -0.7570    0.0000 C   0  0  0  0  0  0  0  0  0  0  0  0
    1.4461   -1.1756    0.0000 N   0  0  0  0  0  0  0  0  0  0  0  0
    1.4520   -2.0026    0.0000 C   0  0  0  0  0  0  0  0  0  0  0  0
    1.8706   -2.7158    0.0000 C   0  0  0  0  0  0  0  0  0  0  0  0
    1.0437   -2.7217    0.0000 C   0  0  0  0  0  0  0  0  0  0  0  0
    2.1534    0.0700    0.0000 C   0  0  0  0  0  0  0  0  0  0  0  0
    2.8693    0.4841    0.0000 C   0  0  0  0  0  0  0  0  0  0  0  0
    2.8693    1.3124    0.0000 C   0  0  0  0  0  0  0  0  0  0  0  0
    3.5851    1.7265    0.0000 C   0  0  0  0  0  0  0  0  0  0  0  0
    3.6709    2.5490    0.0000 C   0  0  0  0  0  0  0  0  0  0  0  0
    4.4796    2.7217    0.0000 N   0  0  0  0  0  0  0  0  0  0  0  0
    4.8938    2.0059    0.0000 C   0  0  0  0  0  0  0  0  0  0  0  0
    4.3409    1.3908    0.0000 O   0  0  0  0  0  0  0  0  0  0  0  0
    2.1534    1.7265    0.0000 N   0  0  0  0  0  0  0  0  0  0  0  0
    1.4317    1.3124    0.0000 C   0  0  0  0  0  0  0  0  0  0  0  0
    0.7158    1.7265    0.0000 C   0  0  0  0  0  0  0  0  0  0  0  0
    0.0000    1.3124    0.0000 C   0  0  0  0  0  0  0  0  0  0  0  0
    0.0000    0.4841    0.0000 C   0  0  0  0  0  0  0  0  0  0  0  0
    0.7158    0.0700    0.0000 C   0  0  0  0  0  0  0  0  0  0  0  0
    1.4317    0.4841    0.0000 C   0  0  0  0  0  0  0  0  0  0  0  0
  1  2  2  0  0  0
  2  3  1  0  0  0
  3  4  1  0  0  0
  4  6  1  0  0  0
  4  5  1  0  0  0
  5  6  1  0  0  0
  2  7  1  0  0  0
  7 21  1  0  0  0
  7  8  2  0  0  0
  8  9  1  0  0  0
  9 10  1  0  0  0
 10 14  1  0  0  0
 10 11  2  0  0  0
 11 12  1  0  0  0
 12 13  2  0  0  0
 13 14  1  0  0  0
  9 15  2  0  0  0
 15 16  1  0  0  0
 16 21  1  0  0  0
 16 17  2  0  0  0
 17 18  1  0  0  0
 18 19  2  0  0  0
 19 20  1  0  0  0
 20 21  2  0  0  0
M  END
>  <Entry>
477

>  <title>
5-6699

>  <rigid docking scores>
-16.8879

>  <InChIKey>
BFVBHWCEURXFNZ-UHFFFAOYSA-N

$$$$
atoms 20 bonds 21
dotmatics
mol io
 20 21  0  0  0  0  0  0  0  0999 V2000
    6.6235    1.7878    0.0000 C   0  0  0  0  0  0  0  0  0  0  0  0
    6.2094    1.0720    0.0000 C   0  0  0  0  0  0  0  0  0  0  0  0
    6.6222    0.3554    0.0000 C   0  0  0  0  0  0  0  0  0  0  0  0
    5.3824    1.0727    0.0000 C   0  0  0  0  0  0  0  0  0  0  0  0
    4.9695    1.7892    0.0000 C   0  0  0  0  0  0  0  0  0  0  0  0
    4.1425    1.7900    0.0000 O   0  0  0  0  0  0  0  0  0  0  0  0
    4.9682    0.3568    0.0000 N   0  0  0  0  0  0  0  0  0  0  0  0
    4.1412    0.3576    0.0000 C   0  0  0  0  0  0  0  0  0  0  0  0
    3.7271   -0.3583    0.0000 C   0  0  0  0  0  0  0  0  0  0  0  0
    4.1412   -1.0741    0.0000 C   0  0  0  0  0  0  0  0  0  0  0  0
    3.7271   -1.7900    0.0000 C   0  0  0  0  0  0  0  0  0  0  0  0
    2.8989   -1.7900    0.0000 C   0  0  0  0  0  0  0  0  0  0  0  0
    2.4847   -1.0741    0.0000 C   0  0  0  0  0  0  0  0  0  0  0  0
    1.6565   -1.0741    0.0000 C   0  0  0  0  0  0  0  0  0  0  0  0
    1.2424   -1.7900    0.0000 C   0  0  0  0  0  0  0  0  0  0  0  0
    0.4141   -1.7900    0.0000 C   0  0  0  0  0  0  0  0  0  0  0  0
    0.0000   -1.0741    0.0000 C   0  0  0  0  0  0  0  0  0  0  0  0
    0.4141   -0.3583    0.0000 C   0  0  0  0  0  0  0  0  0  0  0  0
    1.2424   -0.3583    0.0000 C   0  0  0  0  0  0  0  0  0  0  0  0
    2.8989   -0.3583    0.0000 N   0  0  0  0  0  0  0  0  0  0  0  0
  1  2  1  0  0  0
  2  3  1  0  0  0
  2  4  1  0  0  0
  4  5  1  0  0  0
  5  6  1  0  0  0
  4  7  1  0  0  0
  7  8  1  0  0  0
  8  9  1  0  0  0
  9 20  1  0  0  0
  9 10  2  0  0  0
 10 11  1  0  0  0
 11 12  2  0  0  0
 12 13  1  0  0  0
 13 14  1  0  0  0
 14 19  1  0  0  0
 14 15  2  0  0  0
 15 16  1  0  0  0
 16 17  2  0  0  0
 17 18  1  0  0  0
 18 19  2  0  0  0
 13 20  2  0  0  0
M  END
>  <Entry>
478

>  <title>
5-6940

>  <rigid docking scores>
-15.3092

>  <InChIKey>
SORVLDDEIWMQLI-UHFFFAOYSA-N

$$$$
atoms 19 bonds 21
dotmatics
mol io
 19 21  0  0  0  0  0  0  0  0999 V2000
   -3.4912    3.1068    0.0000 C   0  0  0  0  0  0  0  0  0  0  0  0
   -2.6642    3.1068    0.0000 C   0  0  0  0  0  0  0  0  0  0  0  0
   -2.2507    3.8230    0.0000 C   0  0  0  0  0  0  0  0  0  0  0  0
   -1.4237    3.8230    0.0000 C   0  0  0  0  0  0  0  0  0  0  0  0
   -1.0102    3.1068    0.0000 N   0  0  0  0  0  0  0  0  0  0  0  0
   -0.1832    3.1068    0.0000 C   0  0  0  0  0  0  0  0  0  0  0  0
    0.2303    2.3906    0.0000 C   0  0  0  0  0  0  0  0  0  0  0  0
    1.0528    2.3041    0.0000 N   0  0  0  0  0  0  0  0  0  0  0  0
    1.2247    1.4952    0.0000 C   0  0  0  0  0  0  0  0  0  0  0  0
    1.9802    1.1588    0.0000 C   0  0  0  0  0  0  0  0  0  0  0  0
    2.6493    1.6449    0.0000 C   0  0  0  0  0  0  0  0  0  0  0  0
    3.4048    1.3086    0.0000 C   0  0  0  0  0  0  0  0  0  0  0  0
    3.4912    0.4861    0.0000 C   0  0  0  0  0  0  0  0  0  0  0  0
    2.8222   -0.0000    0.0000 N   0  0  0  0  0  0  0  0  0  0  0  0
    2.0667    0.3364    0.0000 C   0  0  0  0  0  0  0  0  0  0  0  0
    0.5085    1.0817    0.0000 N   0  0  0  0  0  0  0  0  0  0  0  0
   -0.1061    1.6351    0.0000 O   0  0  0  0  0  0  0  0  0  0  0  0
   -1.4237    2.3906    0.0000 C   0  0  0  0  0  0  0  0  0  0  0  0
   -2.2507    2.3906    0.0000 C   0  0  0  0  0  0  0  0  0  0  0  0
  1  2  1  0  0  0
  2 19  1  0  0  0
  2  3  1  0  0  0
  3  4  1  0  0  0
  4  5  1  0  0  0
  5  6  1  0  0  0
  6  7  1  0  0  0
  7 17  1  0  0  0
  7  8  2  0  0  0
  8  9  1  0  0  0
  9 10  1  0  0  0
 10 15  1  0  0  0
 10 11  2  0  0  0
 11 12  1  0  0  0
 12 13  2  0  0  0
 13 14  1  0  0  0
 14 15  2  0  0  0
  9 16  2  0  0  0
 16 17  1  0  0  0
  5 18  1  0  0  0
 18 19  1  0  0  0
M  END
>  <Entry>
479

>  <title>
1-516

>  <rigid docking scores>
-16.6494

>  <InChIKey>
WIZMWXHMCIJMQI-UHFFFAOYSA-N

>  <Pubchem>
133887818

$$$$
atoms 19 bonds 21
dotmatics
mol io
 19 21  0  0  0  0  0  0  0  0999 V2000
    6.2597    0.6615    0.0000 N   0  0  0  0  0  0  0  0  0  0  0  0
    5.7039    1.2739    0.0000 C   0  0  0  0  0  0  0  0  0  0  0  0
    4.8956    1.0987    0.0000 C   0  0  0  0  0  0  0  0  0  0  0  0
    4.6432    0.3112    0.0000 C   0  0  0  0  0  0  0  0  0  0  0  0
    3.8350    0.1360    0.0000 C   0  0  0  0  0  0  0  0  0  0  0  0
    3.2792    0.7484    0.0000 C   0  0  0  0  0  0  0  0  0  0  0  0
    2.4709    0.5732    0.0000 C   0  0  0  0  0  0  0  0  0  0  0  0
    1.9151    1.1856    0.0000 O   0  0  0  0  0  0  0  0  0  0  0  0
    2.2185   -0.2143    0.0000 N   0  0  0  0  0  0  0  0  0  0  0  0
    2.7096   -0.8828    0.0000 C   0  0  0  0  0  0  0  0  0  0  0  0
    2.2185   -1.5514    0.0000 C   0  0  0  0  0  0  0  0  0  0  0  0
    1.4317   -1.2970    0.0000 C   0  0  0  0  0  0  0  0  0  0  0  0
    0.7158   -1.7111    0.0000 C   0  0  0  0  0  0  0  0  0  0  0  0
    0.0000   -1.2970    0.0000 C   0  0  0  0  0  0  0  0  0  0  0  0
    0.0000   -0.4687    0.0000 C   0  0  0  0  0  0  0  0  0  0  0  0
    0.7158   -0.0546    0.0000 C   0  0  0  0  0  0  0  0  0  0  0  0
    1.4317   -0.4687    0.0000 C   0  0  0  0  0  0  0  0  0  0  0  0
    3.5316    1.5359    0.0000 C   0  0  0  0  0  0  0  0  0  0  0  0
    4.3398    1.7111    0.0000 C   0  0  0  0  0  0  0  0  0  0  0  0
  1  2  1  0  0  0
  2  3  1  0  0  0
  3 19  1  0  0  0
  3  4  2  0  0  0
  4  5  1  0  0  0
  5  6  2  0  0  0
  6  7  1  0  0  0
  7  8  2  0  0  0
  7  9  1  0  0  0
  9 17  1  0  0  0
  9 10  1  0  0  0
 10 11  1  0  0  0
 11 12  1  0  0  0
 12 17  1  0  0  0
 12 13  2  0  0  0
 13 14  1  0  0  0
 14 15  2  0  0  0
 15 16  1  0  0  0
 16 17  2  0  0  0
  6 18  1  0  0  0
 18 19  2  0  0  0
M  END
>  <Entry>
480

>  <title>
5-7114

>  <rigid docking scores>
-16.6422

>  <InChIKey>
PEUGHSKNXYHELL-UHFFFAOYSA-N

>  <Pubchem>
16795969

$$$$
atoms 22 bonds 24
dotmatics
mol io
 22 24  0  0  0  0  0  0  0  0999 V2000
    0.0000   -3.3105    0.0000 C   0  0  0  0  0  0  0  0  0  0  0  0
    0.7158   -2.8964    0.0000 O   0  0  0  0  0  0  0  0  0  0  0  0
    0.7151   -2.0694    0.0000 C   0  0  0  0  0  0  0  0  0  0  0  0
    1.4310   -1.6552    0.0000 C   0  0  0  0  0  0  0  0  0  0  0  0
    2.1475   -2.0681    0.0000 C   0  0  0  0  0  0  0  0  0  0  0  0
    1.4302   -0.8282    0.0000 N   0  0  0  0  0  0  0  0  0  0  0  0
    2.1461   -0.4141    0.0000 C   0  0  0  0  0  0  0  0  0  0  0  0
    2.1454    0.4129    0.0000 C   0  0  0  0  0  0  0  0  0  0  0  0
    1.4288    0.8258    0.0000 C   0  0  0  0  0  0  0  0  0  0  0  0
    1.4281    1.6528    0.0000 N   0  0  0  0  0  0  0  0  0  0  0  0
    2.1439    2.0669    0.0000 C   0  0  0  0  0  0  0  0  0  0  0  0
    2.8605    1.6540    0.0000 C   0  0  0  0  0  0  0  0  0  0  0  0
    3.5763    2.0681    0.0000 N   0  0  0  0  0  0  0  0  0  0  0  0
    3.5763    2.8964    0.0000 C   0  0  0  0  0  0  0  0  0  0  0  0
    4.2922    3.3105    0.0000 C   0  0  0  0  0  0  0  0  0  0  0  0
    5.0080    2.8964    0.0000 C   0  0  0  0  0  0  0  0  0  0  0  0
    5.7949    3.1508    0.0000 S   0  0  0  0  0  0  0  0  0  0  0  0
    6.2859    2.4822    0.0000 C   0  0  0  0  0  0  0  0  0  0  0  0
    5.7949    1.8137    0.0000 C   0  0  0  0  0  0  0  0  0  0  0  0
    5.0080    2.0681    0.0000 C   0  0  0  0  0  0  0  0  0  0  0  0
    4.2922    1.6540    0.0000 C   0  0  0  0  0  0  0  0  0  0  0  0
    2.8612    0.8270    0.0000 N   0  0  0  0  0  0  0  0  0  0  0  0
  1  2  1  0  0  0
  2  3  1  0  0  0
  3  4  1  0  0  0
  4  5  1  0  0  0
  4  6  1  0  0  0
  6  7  1  0  0  0
  7  8  1  0  0  0
  8 22  1  0  0  0
  8  9  2  0  0  0
  9 10  1  0  0  0
 10 11  2  0  0  0
 11 12  1  0  0  0
 12 13  1  0  0  0
 13 21  1  0  0  0
 13 14  1  0  0  0
 14 15  1  0  0  0
 15 16  1  0  0  0
 16 20  2  0  0  0
 16 17  1  0  0  0
 17 18  1  0  0  0
 18 19  2  0  0  0
 19 20  1  0  0  0
 20 21  1  0  0  0
 12 22  2  0  0  0
M  END
>  <Entry>
481

>  <title>
5-8208

>  <rigid docking scores>
-15.348

>  <InChIKey>
WYAYUPVGDPJKIZ-UHFFFAOYSA-N

$$$$
atoms 24 bonds 27
dotmatics
mol io
 24 27  0  0  0  0  0  0  0  0999 V2000
    1.4461   -2.0789    0.0000 O   0  0  0  0  0  0  0  0  0  0  0  0
    2.1594   -1.6603    0.0000 C   0  0  0  0  0  0  0  0  0  0  0  0
    2.1534   -0.8334    0.0000 C   0  0  0  0  0  0  0  0  0  0  0  0
    2.8693   -0.4192    0.0000 C   0  0  0  0  0  0  0  0  0  0  0  0
    2.8693    0.4090    0.0000 N   0  0  0  0  0  0  0  0  0  0  0  0
    2.1534    0.8231    0.0000 C   0  0  0  0  0  0  0  0  0  0  0  0
    2.1594    1.6501    0.0000 C   0  0  0  0  0  0  0  0  0  0  0  0
    2.8785    2.0585    0.0000 C   0  0  0  0  0  0  0  0  0  0  0  0
    2.8844    2.8855    0.0000 C   0  0  0  0  0  0  0  0  0  0  0  0
    2.1712    3.3041    0.0000 C   0  0  0  0  0  0  0  0  0  0  0  0
    1.4520    2.8957    0.0000 C   0  0  0  0  0  0  0  0  0  0  0  0
    1.4461    2.0687    0.0000 N   0  0  0  0  0  0  0  0  0  0  0  0
    1.4317    0.4090    0.0000 C   0  0  0  0  0  0  0  0  0  0  0  0
    1.4317   -0.4192    0.0000 C   0  0  0  0  0  0  0  0  0  0  0  0
    0.7158   -0.8334    0.0000 C   0  0  0  0  0  0  0  0  0  0  0  0
    0.0000   -0.4192    0.0000 C   0  0  0  0  0  0  0  0  0  0  0  0
    0.0000    0.4090    0.0000 C   0  0  0  0  0  0  0  0  0  0  0  0
    0.7158    0.8231    0.0000 C   0  0  0  0  0  0  0  0  0  0  0  0
    2.8785   -2.0687    0.0000 N   0  0  0  0  0  0  0  0  0  0  0  0
    3.5917   -1.6501    0.0000 C   0  0  0  0  0  0  0  0  0  0  0  0
    4.3109   -2.0585    0.0000 C   0  0  0  0  0  0  0  0  0  0  0  0
    4.3168   -2.8855    0.0000 O   0  0  0  0  0  0  0  0  0  0  0  0
    3.6035   -3.3041    0.0000 C   0  0  0  0  0  0  0  0  0  0  0  0
    2.8844   -2.8957    0.0000 C   0  0  0  0  0  0  0  0  0  0  0  0
  1  2  2  0  0  0
  2  3  1  0  0  0
  3 14  1  0  0  0
  3  4  2  0  0  0
  4  5  1  0  0  0
  5  6  2  0  0  0
  6  7  1  0  0  0
  7 12  1  0  0  0
  7  8  2  0  0  0
  8  9  1  0  0  0
  9 10  2  0  0  0
 10 11  1  0  0  0
 11 12  2  0  0  0
  6 13  1  0  0  0
 13 18  1  0  0  0
 13 14  2  0  0  0
 14 15  1  0  0  0
 15 16  1  0  0  0
 16 17  1  0  0  0
 17 18  1  0  0  0
  2 19  1  0  0  0
 19 24  1  0  0  0
 19 20  1  0  0  0
 20 21  1  0  0  0
 21 22  1  0  0  0
 22 23  1  0  0  0
 23 24  1  0  0  0
M  END
>  <Entry>
482

>  <title>
5-8563

>  <rigid docking scores>
-15.679

>  <InChIKey>
DRNCVSMFSOHZTI-UHFFFAOYSA-N

$$$$
atoms 20 bonds 22
dotmatics
mol io
 20 22  0  0  0  0  0  0  0  0999 V2000
    1.9822    2.3879    0.0000 C   0  0  0  0  0  0  0  0  0  0  0  0
    1.9822    1.5609    0.0000 N   0  0  0  0  0  0  0  0  0  0  0  0
    2.6512    1.0748    0.0000 C   0  0  0  0  0  0  0  0  0  0  0  0
    2.3957    0.2883    0.0000 C   0  0  0  0  0  0  0  0  0  0  0  0
    2.8818   -0.3808    0.0000 N   0  0  0  0  0  0  0  0  0  0  0  0
    3.7042   -0.2943    0.0000 C   0  0  0  0  0  0  0  0  0  0  0  0
    4.0406    0.4612    0.0000 O   0  0  0  0  0  0  0  0  0  0  0  0
    4.1903   -0.9634    0.0000 C   0  0  0  0  0  0  0  0  0  0  0  0
    3.8540   -1.7189    0.0000 C   0  0  0  0  0  0  0  0  0  0  0  0
    4.3400   -2.3879    0.0000 C   0  0  0  0  0  0  0  0  0  0  0  0
    5.1625   -2.3015    0.0000 C   0  0  0  0  0  0  0  0  0  0  0  0
    5.4989   -1.5460    0.0000 C   0  0  0  0  0  0  0  0  0  0  0  0
    5.0128   -0.8769    0.0000 N   0  0  0  0  0  0  0  0  0  0  0  0
    1.5687    0.2883    0.0000 C   0  0  0  0  0  0  0  0  0  0  0  0
    1.0826   -0.3808    0.0000 C   0  0  0  0  0  0  0  0  0  0  0  0
    1.3381   -1.1673    0.0000 C   0  0  0  0  0  0  0  0  0  0  0  0
    0.6691   -1.6534    0.0000 C   0  0  0  0  0  0  0  0  0  0  0  0
    0.0000   -1.1673    0.0000 C   0  0  0  0  0  0  0  0  0  0  0  0
    0.2556   -0.3808    0.0000 S   0  0  0  0  0  0  0  0  0  0  0  0
    1.3131    1.0748    0.0000 N   0  0  0  0  0  0  0  0  0  0  0  0
  1  2  1  0  0  0
  2 20  1  0  0  0
  2  3  1  0  0  0
  3  4  2  0  0  0
  4  5  1  0  0  0
  5  6  1  0  0  0
  6  7  2  0  0  0
  6  8  1  0  0  0
  8 13  1  0  0  0
  8  9  2  0  0  0
  9 10  1  0  0  0
 10 11  2  0  0  0
 11 12  1  0  0  0
 12 13  2  0  0  0
  4 14  1  0  0  0
 14 15  1  0  0  0
 15 19  1  0  0  0
 15 16  2  0  0  0
 16 17  1  0  0  0
 17 18  2  0  0  0
 18 19  1  0  0  0
 14 20  2  0  0  0
M  END
>  <Entry>
483

>  <title>
5-9992

>  <rigid docking scores>
-18.6488

>  <InChIKey>
VQFQVMQMIUZHBL-UHFFFAOYSA-N

$$$$
atoms 24 bonds 26
dotmatics
mol io
 24 26  0  0  0  0  0  0  0  0999 V2000
    0.7162    1.1672    0.0000 O   0  0  0  0  0  0  0  0  0  0  0  0
    1.4324    0.7537    0.0000 C   0  0  0  0  0  0  0  0  0  0  0  0
    1.4324   -0.0733    0.0000 C   0  0  0  0  0  0  0  0  0  0  0  0
    2.1486   -0.4868    0.0000 C   0  0  0  0  0  0  0  0  0  0  0  0
    2.1486   -1.3138    0.0000 C   0  0  0  0  0  0  0  0  0  0  0  0
    1.4324   -1.7273    0.0000 C   0  0  0  0  0  0  0  0  0  0  0  0
    1.4324   -2.5543    0.0000 O   0  0  0  0  0  0  0  0  0  0  0  0
    0.7162   -1.3138    0.0000 C   0  0  0  0  0  0  0  0  0  0  0  0
    0.0000   -1.7273    0.0000 Cl  0  0  0  0  0  0  0  0  0  0  0  0
    0.7162   -0.4868    0.0000 C   0  0  0  0  0  0  0  0  0  0  0  0
    2.1486    1.1672    0.0000 N   0  0  0  0  0  0  0  0  0  0  0  0
    2.0868    1.9918    0.0000 C   0  0  0  0  0  0  0  0  0  0  0  0
    2.6930    2.5543    0.0000 C   0  0  0  0  0  0  0  0  0  0  0  0
    3.5108    2.4311    0.0000 C   0  0  0  0  0  0  0  0  0  0  0  0
    3.9243    1.7149    0.0000 N   0  0  0  0  0  0  0  0  0  0  0  0
    4.7490    1.7767    0.0000 C   0  0  0  0  0  0  0  0  0  0  0  0
    5.2149    1.0934    0.0000 C   0  0  0  0  0  0  0  0  0  0  0  0
    6.0395    1.1552    0.0000 C   0  0  0  0  0  0  0  0  0  0  0  0
    6.5054    0.4719    0.0000 C   0  0  0  0  0  0  0  0  0  0  0  0
    6.1466   -0.2732    0.0000 C   0  0  0  0  0  0  0  0  0  0  0  0
    5.3219   -0.3350    0.0000 N   0  0  0  0  0  0  0  0  0  0  0  0
    4.8560    0.3483    0.0000 C   0  0  0  0  0  0  0  0  0  0  0  0
    3.6222    0.9451    0.0000 C   0  0  0  0  0  0  0  0  0  0  0  0
    2.8319    0.7013    0.0000 C   0  0  0  0  0  0  0  0  0  0  0  0
  1  2  2  0  0  0
  2  3  1  0  0  0
  3 10  1  0  0  0
  3  4  2  0  0  0
  4  5  1  0  0  0
  5  6  2  0  0  0
  6  7  1  0  0  0
  6  8  1  0  0  0
  8  9  1  0  0  0
  8 10  2  0  0  0
  2 11  1  0  0  0
 11 24  1  0  0  0
 11 12  1  0  0  0
 12 13  1  0  0  0
 13 14  1  0  0  0
 14 15  1  0  0  0
 15 16  1  0  0  0
 16 17  1  0  0  0
 17 22  1  0  0  0
 17 18  2  0  0  0
 18 19  1  0  0  0
 19 20  2  0  0  0
 20 21  1  0  0  0
 21 22  2  0  0  0
 15 23  1  0  0  0
 23 24  1  0  0  0
M  END
>  <Entry>
484

>  <title>
6-396

>  <rigid docking scores>
-17.3486

>  <InChIKey>
KHTBLFYNMVQSMY-UHFFFAOYSA-N

$$$$
atoms 24 bonds 27
dotmatics
mol io
 24 27  0  0  0  0  0  0  0  0999 V2000
    2.1771   -3.1034    0.0000 C   0  0  0  0  0  0  0  0  0  0  0  0
    2.1712   -2.2764    0.0000 N   0  0  0  0  0  0  0  0  0  0  0  0
    1.4520   -1.8680    0.0000 C   0  0  0  0  0  0  0  0  0  0  0  0
    1.4461   -1.0411    0.0000 C   0  0  0  0  0  0  0  0  0  0  0  0
    2.1594   -0.6225    0.0000 N   0  0  0  0  0  0  0  0  0  0  0  0
    2.1534    0.2045    0.0000 C   0  0  0  0  0  0  0  0  0  0  0  0
    2.8693    0.6186    0.0000 N   0  0  0  0  0  0  0  0  0  0  0  0
    2.8693    1.4469    0.0000 C   0  0  0  0  0  0  0  0  0  0  0  0
    3.5851    1.8610    0.0000 C   0  0  0  0  0  0  0  0  0  0  0  0
    3.5844    2.6880    0.0000 C   0  0  0  0  0  0  0  0  0  0  0  0
    4.3003    3.1021    0.0000 C   0  0  0  0  0  0  0  0  0  0  0  0
    5.0168    2.6893    0.0000 C   0  0  0  0  0  0  0  0  0  0  0  0
    5.7327    3.1034    0.0000 F   0  0  0  0  0  0  0  0  0  0  0  0
    5.0175    1.8623    0.0000 C   0  0  0  0  0  0  0  0  0  0  0  0
    4.3017    1.4481    0.0000 C   0  0  0  0  0  0  0  0  0  0  0  0
    2.1534    1.8610    0.0000 N   0  0  0  0  0  0  0  0  0  0  0  0
    1.4317    1.4469    0.0000 C   0  0  0  0  0  0  0  0  0  0  0  0
    1.4317    0.6186    0.0000 C   0  0  0  0  0  0  0  0  0  0  0  0
    0.7158    0.2045    0.0000 C   0  0  0  0  0  0  0  0  0  0  0  0
    0.0000    0.6186    0.0000 C   0  0  0  0  0  0  0  0  0  0  0  0
    0.0000    1.4469    0.0000 C   0  0  0  0  0  0  0  0  0  0  0  0
    0.7158    1.8610    0.0000 C   0  0  0  0  0  0  0  0  0  0  0  0
    2.8785   -1.0308    0.0000 C   0  0  0  0  0  0  0  0  0  0  0  0
    2.8844   -1.8578    0.0000 C   0  0  0  0  0  0  0  0  0  0  0  0
  1  2  1  0  0  0
  2 24  1  0  0  0
  2  3  1  0  0  0
  3  4  1  0  0  0
  4  5  1  0  0  0
  5  6  1  0  0  0
  6 18  1  0  0  0
  6  7  2  0  0  0
  7  8  1  0  0  0
  8  9  1  0  0  0
  9 15  1  0  0  0
  9 10  2  0  0  0
 10 11  1  0  0  0
 11 12  2  0  0  0
 12 13  1  0  0  0
 12 14  1  0  0  0
 14 15  2  0  0  0
  8 16  2  0  0  0
 16 17  1  0  0  0
 17 22  1  0  0  0
 17 18  2  0  0  0
 18 19  1  0  0  0
 19 20  1  0  0  0
 20 21  1  0  0  0
 21 22  1  0  0  0
  5 23  1  0  0  0
 23 24  1  0  0  0
M  END
>  <Entry>
485

>  <title>
6-687

>  <rigid docking scores>
-18.3264

>  <InChIKey>
LUAVIUMBKVLWPX-UHFFFAOYSA-N

>  <Pubchem>
139665113

$$$$
atoms 22 bonds 24
dotmatics
mol io
 22 24  0  0  0  0  0  0  0  0999 V2000
    3.7284    1.0745    0.0000 O   0  0  0  0  0  0  0  0  0  0  0  0
    4.1412    0.3579    0.0000 C   0  0  0  0  0  0  0  0  0  0  0  0
    4.9682    0.3572    0.0000 N   0  0  0  0  0  0  0  0  0  0  0  0
    5.3824    1.0730    0.0000 N   0  0  0  0  0  0  0  0  0  0  0  0
    4.9695    1.7896    0.0000 C   0  0  0  0  0  0  0  0  0  0  0  0
    5.3836    2.5054    0.0000 C   0  0  0  0  0  0  0  0  0  0  0  0
    6.2106    2.5047    0.0000 O   0  0  0  0  0  0  0  0  0  0  0  0
    6.6235    1.7882    0.0000 C   0  0  0  0  0  0  0  0  0  0  0  0
    6.2094    1.0723    0.0000 C   0  0  0  0  0  0  0  0  0  0  0  0
    3.7271   -0.3579    0.0000 C   0  0  0  0  0  0  0  0  0  0  0  0
    4.1412   -1.0738    0.0000 C   0  0  0  0  0  0  0  0  0  0  0  0
    3.7271   -1.7896    0.0000 C   0  0  0  0  0  0  0  0  0  0  0  0
    2.8989   -1.7896    0.0000 C   0  0  0  0  0  0  0  0  0  0  0  0
    2.4847   -2.5054    0.0000 O   0  0  0  0  0  0  0  0  0  0  0  0
    2.4847   -1.0738    0.0000 N   0  0  0  0  0  0  0  0  0  0  0  0
    1.6565   -1.0738    0.0000 C   0  0  0  0  0  0  0  0  0  0  0  0
    1.2424   -1.7896    0.0000 C   0  0  0  0  0  0  0  0  0  0  0  0
    0.4141   -1.7896    0.0000 C   0  0  0  0  0  0  0  0  0  0  0  0
    0.0000   -1.0738    0.0000 C   0  0  0  0  0  0  0  0  0  0  0  0
    0.4141   -0.3579    0.0000 C   0  0  0  0  0  0  0  0  0  0  0  0
    1.2424   -0.3579    0.0000 C   0  0  0  0  0  0  0  0  0  0  0  0
    2.8989   -0.3579    0.0000 N   0  0  0  0  0  0  0  0  0  0  0  0
  1  2  2  0  0  0
  2  3  1  0  0  0
  3  4  1  0  0  0
  4  9  1  0  0  0
  4  5  1  0  0  0
  5  6  1  0  0  0
  6  7  1  0  0  0
  7  8  1  0  0  0
  8  9  1  0  0  0
  2 10  1  0  0  0
 10 22  2  0  0  0
 10 11  1  0  0  0
 11 12  2  0  0  0
 12 13  1  0  0  0
 13 14  2  0  0  0
 13 15  1  0  0  0
 15 16  1  0  0  0
 16 21  1  0  0  0
 16 17  2  0  0  0
 17 18  1  0  0  0
 18 19  2  0  0  0
 19 20  1  0  0  0
 20 21  2  0  0  0
 15 22  1  0  0  0
M  END
>  <Entry>
486

>  <title>
6-778

>  <rigid docking scores>
-17.4431

>  <InChIKey>
XXYLKORRDWRRHI-UHFFFAOYSA-N

>  <Mcule>
MCULE-8753885561

$$$$
atoms 18 bonds 20
dotmatics
mol io
 18 20  0  0  0  0  0  0  0  0999 V2000
   -3.3371    0.7162    0.0000 C   0  0  0  0  0  0  0  0  0  0  0  0
   -2.5101    0.7162    0.0000 N   0  0  0  0  0  0  0  0  0  0  0  0
   -2.0966    1.4324    0.0000 C   0  0  0  0  0  0  0  0  0  0  0  0
   -1.2696    1.4324    0.0000 C   0  0  0  0  0  0  0  0  0  0  0  0
   -0.8561    0.7162    0.0000 N   0  0  0  0  0  0  0  0  0  0  0  0
   -0.0291    0.7162    0.0000 C   0  0  0  0  0  0  0  0  0  0  0  0
    0.4570    1.3853    0.0000 N   0  0  0  0  0  0  0  0  0  0  0  0
    1.2435    1.1297    0.0000 C   0  0  0  0  0  0  0  0  0  0  0  0
    1.9126    1.6158    0.0000 C   0  0  0  0  0  0  0  0  0  0  0  0
    1.8261    2.4383    0.0000 C   0  0  0  0  0  0  0  0  0  0  0  0
    2.4952    2.9244    0.0000 C   0  0  0  0  0  0  0  0  0  0  0  0
    3.2507    2.5880    0.0000 C   0  0  0  0  0  0  0  0  0  0  0  0
    3.3371    1.7655    0.0000 C   0  0  0  0  0  0  0  0  0  0  0  0
    2.6681    1.2794    0.0000 C   0  0  0  0  0  0  0  0  0  0  0  0
    1.2435    0.3027    0.0000 N   0  0  0  0  0  0  0  0  0  0  0  0
    0.4570    0.0471    0.0000 S   0  0  0  0  0  0  0  0  0  0  0  0
   -1.2696    0.0000    0.0000 C   0  0  0  0  0  0  0  0  0  0  0  0
   -2.0966    0.0000    0.0000 C   0  0  0  0  0  0  0  0  0  0  0  0
  1  2  1  0  0  0
  2 18  1  0  0  0
  2  3  1  0  0  0
  3  4  1  0  0  0
  4  5  1  0  0  0
  5  6  1  0  0  0
  6 16  1  0  0  0
  6  7  2  0  0  0
  7  8  1  0  0  0
  8  9  1  0  0  0
  9 14  1  0  0  0
  9 10  2  0  0  0
 10 11  1  0  0  0
 11 12  2  0  0  0
 12 13  1  0  0  0
 13 14  2  0  0  0
  8 15  2  0  0  0
 15 16  1  0  0  0
  5 17  1  0  0  0
 17 18  1  0  0  0
M  END
>  <Entry>
487

>  <title>
6-1463

>  <rigid docking scores>
-15.4251

>  <InChIKey>
NBMUOQXVILDETE-UHFFFAOYSA-N

>  <ZINC>
ZINC000095393431

>  <SureChEMBL Patents>
SCHEMBL13003027

>  <Pubchem>
59594518

>  <Mcule>
MCULE-1645336745

>  <MolPort>
MolPort-027-892-869

>  <Japanese Chemicals>
J2.697.837H

$$$$
atoms 19 bonds 20
dotmatics
mol io
 19 20  0  0  0  0  0  0  0  0999 V2000
   -1.4473    1.4324    0.0000 C   0  0  0  0  0  0  0  0  0  0  0  0
   -1.0338    2.1486    0.0000 C   0  0  0  0  0  0  0  0  0  0  0  0
   -0.2068    2.1486    0.0000 N   0  0  0  0  0  0  0  0  0  0  0  0
    0.2068    1.4324    0.0000 C   0  0  0  0  0  0  0  0  0  0  0  0
   -0.2068    0.7162    0.0000 O   0  0  0  0  0  0  0  0  0  0  0  0
    1.0338    1.4324    0.0000 C   0  0  0  0  0  0  0  0  0  0  0  0
    1.4473    2.1486    0.0000 C   0  0  0  0  0  0  0  0  0  0  0  0
    2.2743    2.1486    0.0000 C   0  0  0  0  0  0  0  0  0  0  0  0
    2.6878    2.8648    0.0000 O   0  0  0  0  0  0  0  0  0  0  0  0
    2.6878    1.4324    0.0000 C   0  0  0  0  0  0  0  0  0  0  0  0
    2.2743    0.7162    0.0000 C   0  0  0  0  0  0  0  0  0  0  0  0
    2.6878   -0.0000    0.0000 Cl  0  0  0  0  0  0  0  0  0  0  0  0
    1.4473    0.7162    0.0000 C   0  0  0  0  0  0  0  0  0  0  0  0
   -1.4473    2.8648    0.0000 C   0  0  0  0  0  0  0  0  0  0  0  0
   -2.2743    2.8648    0.0000 C   0  0  0  0  0  0  0  0  0  0  0  0
   -2.6878    3.5810    0.0000 C   0  0  0  0  0  0  0  0  0  0  0  0
   -2.2743    4.2972    0.0000 C   0  0  0  0  0  0  0  0  0  0  0  0
   -1.4473    4.2972    0.0000 N   0  0  0  0  0  0  0  0  0  0  0  0
   -1.0338    3.5810    0.0000 C   0  0  0  0  0  0  0  0  0  0  0  0
  1  2  1  0  0  0
  2  3  1  0  0  0
  3  4  1  0  0  0
  4  5  2  0  0  0
  4  6  1  0  0  0
  6 13  1  0  0  0
  6  7  2  0  0  0
  7  8  1  0  0  0
  8  9  1  0  0  0
  8 10  2  0  0  0
 10 11  1  0  0  0
 11 12  1  0  0  0
 11 13  2  0  0  0
  2 14  1  0  0  0
 14 19  1  0  0  0
 14 15  2  0  0  0
 15 16  1  0  0  0
 16 17  2  0  0  0
 17 18  1  0  0  0
 18 19  2  0  0  0
M  END
>  <Entry>
488

>  <title>
6-1719

>  <rigid docking scores>
-17.2913

>  <InChIKey>
VXTQEGVZAIIXIT-UHFFFAOYSA-N

$$$$
atoms 21 bonds 23
dotmatics
mol io
 21 23  0  0  0  0  0  0  0  0999 V2000
   -2.4264    2.2082    0.0000 C   0  0  0  0  0  0  0  0  0  0  0  0
   -2.0129    2.9244    0.0000 C   0  0  0  0  0  0  0  0  0  0  0  0
   -1.1859    2.9244    0.0000 N   0  0  0  0  0  0  0  0  0  0  0  0
   -0.7724    2.2082    0.0000 C   0  0  0  0  0  0  0  0  0  0  0  0
   -1.1859    1.4920    0.0000 O   0  0  0  0  0  0  0  0  0  0  0  0
    0.0546    2.2082    0.0000 C   0  0  0  0  0  0  0  0  0  0  0  0
    0.5407    2.8772    0.0000 C   0  0  0  0  0  0  0  0  0  0  0  0
    1.3272    2.6217    0.0000 C   0  0  0  0  0  0  0  0  0  0  0  0
    1.3272    1.7947    0.0000 N   0  0  0  0  0  0  0  0  0  0  0  0
    1.9963    1.3086    0.0000 C   0  0  0  0  0  0  0  0  0  0  0  0
    2.7518    1.6449    0.0000 C   0  0  0  0  0  0  0  0  0  0  0  0
    3.4208    1.1588    0.0000 C   0  0  0  0  0  0  0  0  0  0  0  0
    3.3344    0.3364    0.0000 C   0  0  0  0  0  0  0  0  0  0  0  0
    2.5789   -0.0000    0.0000 C   0  0  0  0  0  0  0  0  0  0  0  0
    1.9098    0.4861    0.0000 N   0  0  0  0  0  0  0  0  0  0  0  0
    0.5407    1.5391    0.0000 N   0  0  0  0  0  0  0  0  0  0  0  0
   -2.4264    3.6406    0.0000 C   0  0  0  0  0  0  0  0  0  0  0  0
   -3.2489    3.7270    0.0000 C   0  0  0  0  0  0  0  0  0  0  0  0
   -3.4208    4.5359    0.0000 C   0  0  0  0  0  0  0  0  0  0  0  0
   -2.7046    4.9494    0.0000 C   0  0  0  0  0  0  0  0  0  0  0  0
   -2.0900    4.3961    0.0000 S   0  0  0  0  0  0  0  0  0  0  0  0
  1  2  1  0  0  0
  2  3  1  0  0  0
  3  4  1  0  0  0
  4  5  2  0  0  0
  4  6  1  0  0  0
  6 16  2  0  0  0
  6  7  1  0  0  0
  7  8  2  0  0  0
  8  9  1  0  0  0
  9 10  1  0  0  0
 10 15  1  0  0  0
 10 11  2  0  0  0
 11 12  1  0  0  0
 12 13  2  0  0  0
 13 14  1  0  0  0
 14 15  2  0  0  0
  9 16  1  0  0  0
  2 17  1  0  0  0
 17 21  1  0  0  0
 17 18  2  0  0  0
 18 19  1  0  0  0
 19 20  2  0  0  0
 20 21  1  0  0  0
M  END
>  <Entry>
489

>  <title>
6-1720

>  <rigid docking scores>
-15.3885

>  <InChIKey>
VGJACQQQYVUBCZ-UHFFFAOYSA-N

$$$$
atoms 21 bonds 23
dotmatics
mol io
 21 23  0  0  0  0  0  0  0  0999 V2000
    1.4324    2.9283    0.0000 C   0  0  0  0  0  0  0  0  0  0  0  0
    1.4324    2.1013    0.0000 C   0  0  0  0  0  0  0  0  0  0  0  0
    2.1486    1.6878    0.0000 C   0  0  0  0  0  0  0  0  0  0  0  0
    2.1486    0.8608    0.0000 C   0  0  0  0  0  0  0  0  0  0  0  0
    2.8648    0.4473    0.0000 N   0  0  0  0  0  0  0  0  0  0  0  0
    3.5481    0.9132    0.0000 C   0  0  0  0  0  0  0  0  0  0  0  0
    4.3384    0.6694    0.0000 C   0  0  0  0  0  0  0  0  0  0  0  0
    4.6405   -0.1004    0.0000 C   0  0  0  0  0  0  0  0  0  0  0  0
    4.2270   -0.8166    0.0000 N   0  0  0  0  0  0  0  0  0  0  0  0
    4.6929   -1.4999    0.0000 C   0  0  0  0  0  0  0  0  0  0  0  0
    5.5176   -1.4381    0.0000 C   0  0  0  0  0  0  0  0  0  0  0  0
    5.9834   -2.1214    0.0000 N   0  0  0  0  0  0  0  0  0  0  0  0
    5.6246   -2.8665    0.0000 C   0  0  0  0  0  0  0  0  0  0  0  0
    4.7999   -2.9283    0.0000 C   0  0  0  0  0  0  0  0  0  0  0  0
    4.3341   -2.2450    0.0000 N   0  0  0  0  0  0  0  0  0  0  0  0
    3.4092   -0.9399    0.0000 C   0  0  0  0  0  0  0  0  0  0  0  0
    2.8030   -0.3774    0.0000 C   0  0  0  0  0  0  0  0  0  0  0  0
    1.4324    0.4473    0.0000 N   0  0  0  0  0  0  0  0  0  0  0  0
    0.7162    0.8608    0.0000 C   0  0  0  0  0  0  0  0  0  0  0  0
    0.0000    0.4473    0.0000 C   0  0  0  0  0  0  0  0  0  0  0  0
    0.7162    1.6878    0.0000 N   0  0  0  0  0  0  0  0  0  0  0  0
  1  2  1  0  0  0
  2 21  1  0  0  0
  2  3  2  0  0  0
  3  4  1  0  0  0
  4  5  1  0  0  0
  5 17  1  0  0  0
  5  6  1  0  0  0
  6  7  1  0  0  0
  7  8  1  0  0  0
  8  9  1  0  0  0
  9 10  1  0  0  0
 10 15  1  0  0  0
 10 11  2  0  0  0
 11 12  1  0  0  0
 12 13  2  0  0  0
 13 14  1  0  0  0
 14 15  2  0  0  0
  9 16  1  0  0  0
 16 17  1  0  0  0
  4 18  2  0  0  0
 18 19  1  0  0  0
 19 20  1  0  0  0
 19 21  2  0  0  0
M  END
>  <Entry>
490

>  <title>
6-1876

>  <rigid docking scores>
-15.3672

>  <InChIKey>
CAZJRHAFYUGNHO-UHFFFAOYSA-N

$$$$
atoms 20 bonds 22
dotmatics
mol io
 20 22  0  0  0  0  0  0  0  0999 V2000
    2.8955   -2.9016    0.0000 C   0  0  0  0  0  0  0  0  0  0  0  0
    2.4082   -2.2334    0.0000 N   0  0  0  0  0  0  0  0  0  0  0  0
    1.5912   -2.1055    0.0000 C   0  0  0  0  0  0  0  0  0  0  0  0
    1.7190   -1.2885    0.0000 C   0  0  0  0  0  0  0  0  0  0  0  0
    1.2317   -0.6203    0.0000 N   0  0  0  0  0  0  0  0  0  0  0  0
    1.5667    0.1358    0.0000 C   0  0  0  0  0  0  0  0  0  0  0  0
    2.3890    0.2238    0.0000 O   0  0  0  0  0  0  0  0  0  0  0  0
    1.0794    0.8040    0.0000 C   0  0  0  0  0  0  0  0  0  0  0  0
    0.2536    0.8040    0.0000 C   0  0  0  0  0  0  0  0  0  0  0  0
    0.0000    1.5885    0.0000 N   0  0  0  0  0  0  0  0  0  0  0  0
    0.6665    2.0781    0.0000 N   0  0  0  0  0  0  0  0  0  0  0  0
    1.3330    1.5885    0.0000 C   0  0  0  0  0  0  0  0  0  0  0  0
    2.1206    1.8409    0.0000 C   0  0  0  0  0  0  0  0  0  0  0  0
    2.2958    2.6491    0.0000 C   0  0  0  0  0  0  0  0  0  0  0  0
    3.0833    2.9016    0.0000 C   0  0  0  0  0  0  0  0  0  0  0  0
    3.6957    2.3457    0.0000 C   0  0  0  0  0  0  0  0  0  0  0  0
    4.4832    2.5982    0.0000 F   0  0  0  0  0  0  0  0  0  0  0  0
    3.5205    1.5375    0.0000 C   0  0  0  0  0  0  0  0  0  0  0  0
    2.7329    1.2851    0.0000 C   0  0  0  0  0  0  0  0  0  0  0  0
    2.5361   -1.4163    0.0000 C   0  0  0  0  0  0  0  0  0  0  0  0
  1  2  1  0  0  0
  2 20  1  0  0  0
  2  3  1  0  0  0
  3  4  1  0  0  0
  4  5  1  0  0  0
  5  6  1  0  0  0
  6  7  2  0  0  0
  6  8  1  0  0  0
  8 12  2  0  0  0
  8  9  1  0  0  0
  9 10  2  0  0  0
 10 11  1  0  0  0
 11 12  1  0  0  0
 12 13  1  0  0  0
 13 19  1  0  0  0
 13 14  2  0  0  0
 14 15  1  0  0  0
 15 16  2  0  0  0
 16 17  1  0  0  0
 16 18  1  0  0  0
 18 19  2  0  0  0
  4 20  1  0  0  0
M  END
>  <Entry>
491

>  <title>
6-2163

>  <rigid docking scores>
-16.4492

>  <InChIKey>
FQJKUZAQVYSGKQ-UHFFFAOYSA-N

$$$$
atoms 21 bonds 23
dotmatics
mol io
 21 23  0  0  0  0  0  0  0  0999 V2000
    2.3579    2.3879    0.0000 C   0  0  0  0  0  0  0  0  0  0  0  0
    2.3579    1.5609    0.0000 N   0  0  0  0  0  0  0  0  0  0  0  0
    3.0270    1.0748    0.0000 C   0  0  0  0  0  0  0  0  0  0  0  0
    2.7714    0.2883    0.0000 C   0  0  0  0  0  0  0  0  0  0  0  0
    3.2575   -0.3808    0.0000 C   0  0  0  0  0  0  0  0  0  0  0  0
    4.0800   -0.2943    0.0000 N   0  0  0  0  0  0  0  0  0  0  0  0
    4.4163    0.4612    0.0000 C   0  0  0  0  0  0  0  0  0  0  0  0
    5.2388    0.5476    0.0000 C   0  0  0  0  0  0  0  0  0  0  0  0
    5.7249   -0.1214    0.0000 C   0  0  0  0  0  0  0  0  0  0  0  0
    5.3885   -0.8769    0.0000 C   0  0  0  0  0  0  0  0  0  0  0  0
    5.8746   -1.5460    0.0000 N   0  0  0  0  0  0  0  0  0  0  0  0
    4.5661   -0.9634    0.0000 C   0  0  0  0  0  0  0  0  0  0  0  0
    1.9444    0.2883    0.0000 C   0  0  0  0  0  0  0  0  0  0  0  0
    1.4583   -0.3808    0.0000 C   0  0  0  0  0  0  0  0  0  0  0  0
    0.6358   -0.2943    0.0000 C   0  0  0  0  0  0  0  0  0  0  0  0
    0.1497   -0.9634    0.0000 C   0  0  0  0  0  0  0  0  0  0  0  0
    0.4861   -1.7189    0.0000 C   0  0  0  0  0  0  0  0  0  0  0  0
    0.0000   -2.3879    0.0000 F   0  0  0  0  0  0  0  0  0  0  0  0
    1.3086   -1.8053    0.0000 C   0  0  0  0  0  0  0  0  0  0  0  0
    1.7947   -1.1363    0.0000 C   0  0  0  0  0  0  0  0  0  0  0  0
    1.6888    1.0748    0.0000 N   0  0  0  0  0  0  0  0  0  0  0  0
  1  2  1  0  0  0
  2 21  1  0  0  0
  2  3  1  0  0  0
  3  4  2  0  0  0
  4  5  1  0  0  0
  5  6  1  0  0  0
  6 12  1  0  0  0
  6  7  1  0  0  0
  7  8  1  0  0  0
  8  9  1  0  0  0
  9 10  1  0  0  0
 10 11  1  0  0  0
 10 12  1  0  0  0
  4 13  1  0  0  0
 13 14  1  0  0  0
 14 20  1  0  0  0
 14 15  2  0  0  0
 15 16  1  0  0  0
 16 17  2  0  0  0
 17 18  1  0  0  0
 17 19  1  0  0  0
 19 20  2  0  0  0
 13 21  2  0  0  0
M  END
>  <Entry>
492

>  <title>
6-2166

>  <rigid docking scores>
-16.3441

>  <InChIKey>
VZMIAPBWFIBFNZ-UHFFFAOYSA-N

$$$$
atoms 22 bonds 25
dotmatics
mol io
 22 25  0  0  0  0  0  0  0  0999 V2000
    2.7413   -2.1918    0.0000 O   0  0  0  0  0  0  0  0  0  0  0  0
    2.0251   -1.7783    0.0000 C   0  0  0  0  0  0  0  0  0  0  0  0
    1.3089   -2.1918    0.0000 N   0  0  0  0  0  0  0  0  0  0  0  0
    1.2224   -3.0143    0.0000 C   0  0  0  0  0  0  0  0  0  0  0  0
    0.4135   -3.1862    0.0000 C   0  0  0  0  0  0  0  0  0  0  0  0
    0.0000   -2.4700    0.0000 C   0  0  0  0  0  0  0  0  0  0  0  0
    0.5534   -1.8554    0.0000 C   0  0  0  0  0  0  0  0  0  0  0  0
    2.0251   -0.9513    0.0000 N   0  0  0  0  0  0  0  0  0  0  0  0
    1.3089   -0.5378    0.0000 C   0  0  0  0  0  0  0  0  0  0  0  0
    1.3089    0.2892    0.0000 C   0  0  0  0  0  0  0  0  0  0  0  0
    2.0251    0.7027    0.0000 N   0  0  0  0  0  0  0  0  0  0  0  0
    2.0251    1.5297    0.0000 C   0  0  0  0  0  0  0  0  0  0  0  0
    1.3092    1.9438    0.0000 N   0  0  0  0  0  0  0  0  0  0  0  0
    1.3092    2.7721    0.0000 C   0  0  0  0  0  0  0  0  0  0  0  0
    2.0251    3.1862    0.0000 N   0  0  0  0  0  0  0  0  0  0  0  0
    2.7409    2.7721    0.0000 C   0  0  0  0  0  0  0  0  0  0  0  0
    3.5278    3.0265    0.0000 S   0  0  0  0  0  0  0  0  0  0  0  0
    4.0188    2.3580    0.0000 C   0  0  0  0  0  0  0  0  0  0  0  0
    3.5278    1.6894    0.0000 C   0  0  0  0  0  0  0  0  0  0  0  0
    2.7409    1.9438    0.0000 C   0  0  0  0  0  0  0  0  0  0  0  0
    2.7413    0.2892    0.0000 C   0  0  0  0  0  0  0  0  0  0  0  0
    2.7413   -0.5378    0.0000 C   0  0  0  0  0  0  0  0  0  0  0  0
  1  2  2  0  0  0
  2  3  1  0  0  0
  3  7  1  0  0  0
  3  4  1  0  0  0
  4  5  1  0  0  0
  5  6  1  0  0  0
  6  7  1  0  0  0
  2  8  1  0  0  0
  8 22  1  0  0  0
  8  9  1  0  0  0
  9 10  1  0  0  0
 10 11  1  0  0  0
 11 12  1  0  0  0
 12 20  1  0  0  0
 12 13  2  0  0  0
 13 14  1  0  0  0
 14 15  2  0  0  0
 15 16  1  0  0  0
 16 20  2  0  0  0
 16 17  1  0  0  0
 17 18  1  0  0  0
 18 19  2  0  0  0
 19 20  1  0  0  0
 11 21  1  0  0  0
 21 22  1  0  0  0
M  END
>  <Entry>
493

>  <title>
6-2319

>  <rigid docking scores>
-19.9667

>  <InChIKey>
YCDQLWPWDIAYPY-UHFFFAOYSA-N

$$$$
atoms 19 bonds 21
dotmatics
mol io
 19 21  0  0  0  0  0  0  0  0999 V2000
   -3.0585    2.7806    0.0000 C   0  0  0  0  0  0  0  0  0  0  0  0
   -2.2315    2.7806    0.0000 C   0  0  0  0  0  0  0  0  0  0  0  0
   -1.8180    3.4968    0.0000 C   0  0  0  0  0  0  0  0  0  0  0  0
   -0.9910    3.4968    0.0000 C   0  0  0  0  0  0  0  0  0  0  0  0
   -0.5775    2.7806    0.0000 C   0  0  0  0  0  0  0  0  0  0  0  0
    0.2495    2.7806    0.0000 N   0  0  0  0  0  0  0  0  0  0  0  0
    0.6630    2.0644    0.0000 C   0  0  0  0  0  0  0  0  0  0  0  0
    0.3266    1.3089    0.0000 N   0  0  0  0  0  0  0  0  0  0  0  0
    0.9412    0.7555    0.0000 S   0  0  0  0  0  0  0  0  0  0  0  0
    0.4551    0.0864    0.0000 O   0  0  0  0  0  0  0  0  0  0  0  0
    1.2776   -0.0000    0.0000 O   0  0  0  0  0  0  0  0  0  0  0  0
    1.6574    1.1690    0.0000 C   0  0  0  0  0  0  0  0  0  0  0  0
    2.4439    0.9134    0.0000 C   0  0  0  0  0  0  0  0  0  0  0  0
    3.0585    1.4668    0.0000 C   0  0  0  0  0  0  0  0  0  0  0  0
    2.8866    2.2757    0.0000 C   0  0  0  0  0  0  0  0  0  0  0  0
    2.1000    2.5313    0.0000 C   0  0  0  0  0  0  0  0  0  0  0  0
    1.4855    1.9779    0.0000 C   0  0  0  0  0  0  0  0  0  0  0  0
   -0.9910    2.0644    0.0000 C   0  0  0  0  0  0  0  0  0  0  0  0
   -1.8180    2.0644    0.0000 C   0  0  0  0  0  0  0  0  0  0  0  0
  1  2  1  0  0  0
  2 19  1  0  0  0
  2  3  2  0  0  0
  3  4  1  0  0  0
  4  5  2  0  0  0
  5  6  1  0  0  0
  6  7  1  0  0  0
  7 17  1  0  0  0
  7  8  2  0  0  0
  8  9  1  0  0  0
  9 10  2  0  0  0
  9 11  2  0  0  0
  9 12  1  0  0  0
 12 17  1  0  0  0
 12 13  2  0  0  0
 13 14  1  0  0  0
 14 15  2  0  0  0
 15 16  1  0  0  0
 16 17  2  0  0  0
  5 18  1  0  0  0
 18 19  2  0  0  0
M  END
>  <Entry>
494

>  <title>
6-3452

>  <rigid docking scores>
-20.6395

>  <InChIKey>
BTOXQPMYFSLXNG-UHFFFAOYSA-N

>  <ZINC>
ZINC000000242882

>  <eMolecules>
1212360

>  <Pubchem>
610250

>  <Mcule>
MCULE-2999189531

>  <MolPort>
MolPort-000-663-567

$$$$
atoms 24 bonds 27
dotmatics
mol io
 24 27  0  0  0  0  0  0  0  0999 V2000
    0.0784   -2.7542    0.0000 C   0  0  0  0  0  0  0  0  0  0  0  0
    0.4141   -1.9984    0.0000 N   0  0  0  0  0  0  0  0  0  0  0  0
    0.0000   -1.2825    0.0000 C   0  0  0  0  0  0  0  0  0  0  0  0
    0.5528   -0.6675    0.0000 C   0  0  0  0  0  0  0  0  0  0  0  0
    1.3086   -1.0032    0.0000 C   0  0  0  0  0  0  0  0  0  0  0  0
    2.0245   -0.5891    0.0000 N   0  0  0  0  0  0  0  0  0  0  0  0
    2.7410   -1.0019    0.0000 C   0  0  0  0  0  0  0  0  0  0  0  0
    2.7418   -1.8289    0.0000 O   0  0  0  0  0  0  0  0  0  0  0  0
    3.4569   -0.5878    0.0000 C   0  0  0  0  0  0  0  0  0  0  0  0
    4.1727   -1.0019    0.0000 C   0  0  0  0  0  0  0  0  0  0  0  0
    4.8886   -0.5878    0.0000 C   0  0  0  0  0  0  0  0  0  0  0  0
    5.6103   -1.0019    0.0000 C   0  0  0  0  0  0  0  0  0  0  0  0
    6.3262   -0.5878    0.0000 C   0  0  0  0  0  0  0  0  0  0  0  0
    6.3262    0.2404    0.0000 C   0  0  0  0  0  0  0  0  0  0  0  0
    5.6103    0.6546    0.0000 N   0  0  0  0  0  0  0  0  0  0  0  0
    4.8886    0.2404    0.0000 C   0  0  0  0  0  0  0  0  0  0  0  0
    4.1727    0.6546    0.0000 C   0  0  0  0  0  0  0  0  0  0  0  0
    4.1727    1.4816    0.0000 C   0  0  0  0  0  0  0  0  0  0  0  0
    3.5037    1.9677    0.0000 C   0  0  0  0  0  0  0  0  0  0  0  0
    3.7592    2.7542    0.0000 C   0  0  0  0  0  0  0  0  0  0  0  0
    4.5862    2.7542    0.0000 O   0  0  0  0  0  0  0  0  0  0  0  0
    4.8418    1.9677    0.0000 C   0  0  0  0  0  0  0  0  0  0  0  0
    3.4569    0.2404    0.0000 N   0  0  0  0  0  0  0  0  0  0  0  0
    1.2229   -1.8257    0.0000 C   0  0  0  0  0  0  0  0  0  0  0  0
  1  2  1  0  0  0
  2 24  1  0  0  0
  2  3  1  0  0  0
  3  4  1  0  0  0
  4  5  1  0  0  0
  5  6  1  0  0  0
  6  7  1  0  0  0
  7  8  2  0  0  0
  7  9  1  0  0  0
  9 23  1  0  0  0
  9 10  2  0  0  0
 10 11  1  0  0  0
 11 16  1  0  0  0
 11 12  2  0  0  0
 12 13  1  0  0  0
 13 14  2  0  0  0
 14 15  1  0  0  0
 15 16  2  0  0  0
 16 17  1  0  0  0
 17 18  1  0  0  0
 18 22  2  0  0  0
 18 19  1  0  0  0
 19 20  2  0  0  0
 20 21  1  0  0  0
 21 22  1  0  0  0
 17 23  2  0  0  0
  5 24  1  0  0  0
M  END
>  <Entry>
495

>  <title>
6-3551

>  <rigid docking scores>
-17.0553

>  <InChIKey>
GJUVIMLESUWGHN-UHFFFAOYSA-N

$$$$
atoms 24 bonds 27
dotmatics
mol io
 24 27  0  0  0  0  0  0  0  0999 V2000
    3.4650   -1.3063    0.0000 C   0  0  0  0  0  0  0  0  0  0  0  0
    2.8844   -1.8952    0.0000 C   0  0  0  0  0  0  0  0  0  0  0  0
    2.8785   -1.0682    0.0000 N   0  0  0  0  0  0  0  0  0  0  0  0
    2.1594   -0.6599    0.0000 C   0  0  0  0  0  0  0  0  0  0  0  0
    1.4461   -1.0785    0.0000 O   0  0  0  0  0  0  0  0  0  0  0  0
    2.1534    0.1671    0.0000 C   0  0  0  0  0  0  0  0  0  0  0  0
    2.8693    0.5812    0.0000 C   0  0  0  0  0  0  0  0  0  0  0  0
    2.8693    1.4095    0.0000 C   0  0  0  0  0  0  0  0  0  0  0  0
    3.5851    1.8236    0.0000 C   0  0  0  0  0  0  0  0  0  0  0  0
    3.5844    2.6506    0.0000 C   0  0  0  0  0  0  0  0  0  0  0  0
    4.3003    3.0647    0.0000 C   0  0  0  0  0  0  0  0  0  0  0  0
    5.0168    2.6519    0.0000 C   0  0  0  0  0  0  0  0  0  0  0  0
    5.0175    1.8249    0.0000 C   0  0  0  0  0  0  0  0  0  0  0  0
    4.3017    1.4107    0.0000 N   0  0  0  0  0  0  0  0  0  0  0  0
    2.1534    1.8236    0.0000 N   0  0  0  0  0  0  0  0  0  0  0  0
    1.4317    1.4095    0.0000 C   0  0  0  0  0  0  0  0  0  0  0  0
    0.7158    1.8236    0.0000 C   0  0  0  0  0  0  0  0  0  0  0  0
    0.0000    1.4095    0.0000 C   0  0  0  0  0  0  0  0  0  0  0  0
    0.0000    0.5812    0.0000 C   0  0  0  0  0  0  0  0  0  0  0  0
    0.7158    0.1671    0.0000 C   0  0  0  0  0  0  0  0  0  0  0  0
    1.4317    0.5812    0.0000 C   0  0  0  0  0  0  0  0  0  0  0  0
    3.4733   -2.4758    0.0000 C   0  0  0  0  0  0  0  0  0  0  0  0
    2.8928   -3.0647    0.0000 O   0  0  0  0  0  0  0  0  0  0  0  0
    2.3038   -2.4842    0.0000 C   0  0  0  0  0  0  0  0  0  0  0  0
  1  2  1  0  0  0
  2 24  1  0  0  0
  2  3  1  0  0  0
  3  4  1  0  0  0
  4  5  2  0  0  0
  4  6  1  0  0  0
  6 21  1  0  0  0
  6  7  2  0  0  0
  7  8  1  0  0  0
  8  9  1  0  0  0
  9 14  1  0  0  0
  9 10  2  0  0  0
 10 11  1  0  0  0
 11 12  2  0  0  0
 12 13  1  0  0  0
 13 14  2  0  0  0
  8 15  2  0  0  0
 15 16  1  0  0  0
 16 21  1  0  0  0
 16 17  2  0  0  0
 17 18  1  0  0  0
 18 19  2  0  0  0
 19 20  1  0  0  0
 20 21  2  0  0  0
  2 22  1  0  0  0
 22 23  1  0  0  0
 23 24  1  0  0  0
M  END
>  <Entry>
496

>  <title>
6-3639

>  <rigid docking scores>
-19.155

>  <InChIKey>
GDOJLSCZKAOXDW-UHFFFAOYSA-N

$$$$
atoms 25 bonds 28
dotmatics
mol io
 25 28  0  0  0  0  0  0  0  0999 V2000
    2.3655   -3.4527    0.0000 C   0  0  0  0  0  0  0  0  0  0  0  0
    1.8746   -2.7871    0.0000 N   0  0  0  0  0  0  0  0  0  0  0  0
    1.0476   -2.7930    0.0000 C   0  0  0  0  0  0  0  0  0  0  0  0
    0.7865   -2.0084    0.0000 C   0  0  0  0  0  0  0  0  0  0  0  0
    1.4520   -1.5175    0.0000 C   0  0  0  0  0  0  0  0  0  0  0  0
    1.4461   -0.6905    0.0000 N   0  0  0  0  0  0  0  0  0  0  0  0
    2.1594   -0.2719    0.0000 C   0  0  0  0  0  0  0  0  0  0  0  0
    2.8785   -0.6803    0.0000 O   0  0  0  0  0  0  0  0  0  0  0  0
    2.1534    0.5551    0.0000 C   0  0  0  0  0  0  0  0  0  0  0  0
    2.8693    0.9692    0.0000 C   0  0  0  0  0  0  0  0  0  0  0  0
    2.8693    1.7974    0.0000 C   0  0  0  0  0  0  0  0  0  0  0  0
    3.5851    2.2116    0.0000 C   0  0  0  0  0  0  0  0  0  0  0  0
    3.5844    3.0386    0.0000 C   0  0  0  0  0  0  0  0  0  0  0  0
    4.3003    3.4527    0.0000 C   0  0  0  0  0  0  0  0  0  0  0  0
    5.0168    3.0398    0.0000 C   0  0  0  0  0  0  0  0  0  0  0  0
    5.0175    2.2128    0.0000 C   0  0  0  0  0  0  0  0  0  0  0  0
    4.3017    1.7987    0.0000 N   0  0  0  0  0  0  0  0  0  0  0  0
    2.1534    2.2116    0.0000 N   0  0  0  0  0  0  0  0  0  0  0  0
    1.4317    1.7974    0.0000 C   0  0  0  0  0  0  0  0  0  0  0  0
    0.7158    2.2116    0.0000 C   0  0  0  0  0  0  0  0  0  0  0  0
    0.0000    1.7974    0.0000 C   0  0  0  0  0  0  0  0  0  0  0  0
    0.0000    0.9692    0.0000 C   0  0  0  0  0  0  0  0  0  0  0  0
    0.7158    0.5551    0.0000 C   0  0  0  0  0  0  0  0  0  0  0  0
    1.4317    0.9692    0.0000 C   0  0  0  0  0  0  0  0  0  0  0  0
    2.1245   -1.9988    0.0000 C   0  0  0  0  0  0  0  0  0  0  0  0
  1  2  1  0  0  0
  2 25  1  0  0  0
  2  3  1  0  0  0
  3  4  1  0  0  0
  4  5  1  0  0  0
  5  6  1  0  0  0
  6  7  1  0  0  0
  7  8  2  0  0  0
  7  9  1  0  0  0
  9 24  1  0  0  0
  9 10  2  0  0  0
 10 11  1  0  0  0
 11 12  1  0  0  0
 12 17  1  0  0  0
 12 13  2  0  0  0
 13 14  1  0  0  0
 14 15  2  0  0  0
 15 16  1  0  0  0
 16 17  2  0  0  0
 11 18  2  0  0  0
 18 19  1  0  0  0
 19 24  1  0  0  0
 19 20  2  0  0  0
 20 21  1  0  0  0
 21 22  2  0  0  0
 22 23  1  0  0  0
 23 24  2  0  0  0
  5 25  1  0  0  0
M  END
>  <Entry>
497

>  <title>
6-3641

>  <rigid docking scores>
-20.6027

>  <InChIKey>
TWQLVAJKXJXPRJ-UHFFFAOYSA-N

$$$$
atoms 24 bonds 27
dotmatics
mol io
 24 27  0  0  0  0  0  0  0  0999 V2000
    1.4663   -3.4833    0.0000 C   0  0  0  0  0  0  0  0  0  0  0  0
    1.4604   -2.6564    0.0000 N   0  0  0  0  0  0  0  0  0  0  0  0
    0.8714   -2.0758    0.0000 C   0  0  0  0  0  0  0  0  0  0  0  0
    1.4520   -1.4868    0.0000 C   0  0  0  0  0  0  0  0  0  0  0  0
    1.4461   -0.6599    0.0000 N   0  0  0  0  0  0  0  0  0  0  0  0
    2.1594   -0.2413    0.0000 C   0  0  0  0  0  0  0  0  0  0  0  0
    2.8785   -0.6496    0.0000 O   0  0  0  0  0  0  0  0  0  0  0  0
    2.1534    0.5857    0.0000 C   0  0  0  0  0  0  0  0  0  0  0  0
    2.8693    0.9998    0.0000 C   0  0  0  0  0  0  0  0  0  0  0  0
    2.8693    1.8281    0.0000 C   0  0  0  0  0  0  0  0  0  0  0  0
    3.5851    2.2422    0.0000 C   0  0  0  0  0  0  0  0  0  0  0  0
    3.5844    3.0692    0.0000 C   0  0  0  0  0  0  0  0  0  0  0  0
    4.3003    3.4833    0.0000 C   0  0  0  0  0  0  0  0  0  0  0  0
    5.0168    3.0705    0.0000 C   0  0  0  0  0  0  0  0  0  0  0  0
    5.0175    2.2435    0.0000 N   0  0  0  0  0  0  0  0  0  0  0  0
    4.3017    1.8293    0.0000 C   0  0  0  0  0  0  0  0  0  0  0  0
    2.1534    2.2422    0.0000 N   0  0  0  0  0  0  0  0  0  0  0  0
    1.4317    1.8281    0.0000 C   0  0  0  0  0  0  0  0  0  0  0  0
    0.7158    2.2422    0.0000 C   0  0  0  0  0  0  0  0  0  0  0  0
    0.0000    1.8281    0.0000 C   0  0  0  0  0  0  0  0  0  0  0  0
    0.0000    0.9998    0.0000 C   0  0  0  0  0  0  0  0  0  0  0  0
    0.7158    0.5857    0.0000 C   0  0  0  0  0  0  0  0  0  0  0  0
    1.4317    0.9998    0.0000 C   0  0  0  0  0  0  0  0  0  0  0  0
    2.0410   -2.0674    0.0000 C   0  0  0  0  0  0  0  0  0  0  0  0
  1  2  1  0  0  0
  2 24  1  0  0  0
  2  3  1  0  0  0
  3  4  1  0  0  0
  4  5  1  0  0  0
  5  6  1  0  0  0
  6  7  2  0  0  0
  6  8  1  0  0  0
  8 23  1  0  0  0
  8  9  2  0  0  0
  9 10  1  0  0  0
 10 11  1  0  0  0
 11 16  1  0  0  0
 11 12  2  0  0  0
 12 13  1  0  0  0
 13 14  2  0  0  0
 14 15  1  0  0  0
 15 16  2  0  0  0
 10 17  2  0  0  0
 17 18  1  0  0  0
 18 23  1  0  0  0
 18 19  2  0  0  0
 19 20  1  0  0  0
 20 21  2  0  0  0
 21 22  1  0  0  0
 22 23  2  0  0  0
  4 24  1  0  0  0
M  END
>  <Entry>
498

>  <title>
6-3660

>  <rigid docking scores>
-20.1244

>  <InChIKey>
SUYZOFAGCKHXQZ-UHFFFAOYSA-N

$$$$
atoms 25 bonds 28
dotmatics
mol io
 25 28  0  0  0  0  0  0  0  0999 V2000
    2.3655   -3.4527    0.0000 C   0  0  0  0  0  0  0  0  0  0  0  0
    1.8746   -2.7871    0.0000 N   0  0  0  0  0  0  0  0  0  0  0  0
    1.0476   -2.7930    0.0000 C   0  0  0  0  0  0  0  0  0  0  0  0
    0.7865   -2.0084    0.0000 C   0  0  0  0  0  0  0  0  0  0  0  0
    1.4520   -1.5175    0.0000 C   0  0  0  0  0  0  0  0  0  0  0  0
    1.4461   -0.6905    0.0000 N   0  0  0  0  0  0  0  0  0  0  0  0
    2.1594   -0.2719    0.0000 C   0  0  0  0  0  0  0  0  0  0  0  0
    2.8785   -0.6803    0.0000 O   0  0  0  0  0  0  0  0  0  0  0  0
    2.1534    0.5551    0.0000 C   0  0  0  0  0  0  0  0  0  0  0  0
    2.8693    0.9692    0.0000 C   0  0  0  0  0  0  0  0  0  0  0  0
    2.8693    1.7974    0.0000 C   0  0  0  0  0  0  0  0  0  0  0  0
    3.5851    2.2116    0.0000 C   0  0  0  0  0  0  0  0  0  0  0  0
    3.5844    3.0386    0.0000 C   0  0  0  0  0  0  0  0  0  0  0  0
    4.3003    3.4527    0.0000 C   0  0  0  0  0  0  0  0  0  0  0  0
    5.0168    3.0398    0.0000 C   0  0  0  0  0  0  0  0  0  0  0  0
    5.0175    2.2128    0.0000 N   0  0  0  0  0  0  0  0  0  0  0  0
    4.3017    1.7987    0.0000 C   0  0  0  0  0  0  0  0  0  0  0  0
    2.1534    2.2116    0.0000 N   0  0  0  0  0  0  0  0  0  0  0  0
    1.4317    1.7974    0.0000 C   0  0  0  0  0  0  0  0  0  0  0  0
    0.7158    2.2116    0.0000 C   0  0  0  0  0  0  0  0  0  0  0  0
    0.0000    1.7974    0.0000 C   0  0  0  0  0  0  0  0  0  0  0  0
    0.0000    0.9692    0.0000 C   0  0  0  0  0  0  0  0  0  0  0  0
    0.7158    0.5551    0.0000 C   0  0  0  0  0  0  0  0  0  0  0  0
    1.4317    0.9692    0.0000 C   0  0  0  0  0  0  0  0  0  0  0  0
    2.1245   -1.9988    0.0000 C   0  0  0  0  0  0  0  0  0  0  0  0
  1  2  1  0  0  0
  2 25  1  0  0  0
  2  3  1  0  0  0
  3  4  1  0  0  0
  4  5  1  0  0  0
  5  6  1  0  0  0
  6  7  1  0  0  0
  7  8  2  0  0  0
  7  9  1  0  0  0
  9 24  1  0  0  0
  9 10  2  0  0  0
 10 11  1  0  0  0
 11 12  1  0  0  0
 12 17  1  0  0  0
 12 13  2  0  0  0
 13 14  1  0  0  0
 14 15  2  0  0  0
 15 16  1  0  0  0
 16 17  2  0  0  0
 11 18  2  0  0  0
 18 19  1  0  0  0
 19 24  1  0  0  0
 19 20  2  0  0  0
 20 21  1  0  0  0
 21 22  2  0  0  0
 22 23  1  0  0  0
 23 24  2  0  0  0
  5 25  1  0  0  0
M  END
>  <Entry>
499

>  <title>
6-3704

>  <rigid docking scores>
-20.835

>  <InChIKey>
ICSUJKLUHSNJON-UHFFFAOYSA-N

$$$$
atoms 22 bonds 24
dotmatics
mol io
 22 24  0  0  0  0  0  0  0  0999 V2000
    4.9682   -1.0743    0.0000 O   0  0  0  0  0  0  0  0  0  0  0  0
    5.3817   -0.3581    0.0000 C   0  0  0  0  0  0  0  0  0  0  0  0
    4.9682    0.3581    0.0000 N   0  0  0  0  0  0  0  0  0  0  0  0
    4.1412    0.3581    0.0000 C   0  0  0  0  0  0  0  0  0  0  0  0
    3.7271   -0.3577    0.0000 C   0  0  0  0  0  0  0  0  0  0  0  0
    2.8989   -0.3577    0.0000 C   0  0  0  0  0  0  0  0  0  0  0  0
    2.4847    0.3581    0.0000 C   0  0  0  0  0  0  0  0  0  0  0  0
    1.6565    0.3581    0.0000 C   0  0  0  0  0  0  0  0  0  0  0  0
    1.2424   -0.3577    0.0000 C   0  0  0  0  0  0  0  0  0  0  0  0
    0.4141   -0.3577    0.0000 C   0  0  0  0  0  0  0  0  0  0  0  0
    0.0000    0.3581    0.0000 C   0  0  0  0  0  0  0  0  0  0  0  0
    0.4141    1.0739    0.0000 N   0  0  0  0  0  0  0  0  0  0  0  0
    1.2424    1.0739    0.0000 C   0  0  0  0  0  0  0  0  0  0  0  0
    2.8989    1.0739    0.0000 N   0  0  0  0  0  0  0  0  0  0  0  0
    3.7271    1.0739    0.0000 C   0  0  0  0  0  0  0  0  0  0  0  0
    6.2087   -0.3581    0.0000 C   0  0  0  0  0  0  0  0  0  0  0  0
    6.6222    0.3581    0.0000 C   0  0  0  0  0  0  0  0  0  0  0  0
    7.4492    0.3581    0.0000 C   0  0  0  0  0  0  0  0  0  0  0  0
    7.8627    1.0743    0.0000 F   0  0  0  0  0  0  0  0  0  0  0  0
    7.8627   -0.3581    0.0000 C   0  0  0  0  0  0  0  0  0  0  0  0
    7.4492   -1.0743    0.0000 C   0  0  0  0  0  0  0  0  0  0  0  0
    6.6222   -1.0743    0.0000 N   0  0  0  0  0  0  0  0  0  0  0  0
  1  2  2  0  0  0
  2  3  1  0  0  0
  3  4  1  0  0  0
  4 15  1  0  0  0
  4  5  2  0  0  0
  5  6  1  0  0  0
  6  7  2  0  0  0
  7  8  1  0  0  0
  8 13  1  0  0  0
  8  9  2  0  0  0
  9 10  1  0  0  0
 10 11  2  0  0  0
 11 12  1  0  0  0
 12 13  2  0  0  0
  7 14  1  0  0  0
 14 15  2  0  0  0
  2 16  1  0  0  0
 16 22  1  0  0  0
 16 17  2  0  0  0
 17 18  1  0  0  0
 18 19  1  0  0  0
 18 20  2  0  0  0
 20 21  1  0  0  0
 21 22  2  0  0  0
M  END
>  <Entry>
500

>  <title>
6-4028

>  <rigid docking scores>
-15.8844

>  <InChIKey>
IESQHBRHMJOSFM-UHFFFAOYSA-N

$$$$
atoms 21 bonds 23
dotmatics
mol io
 21 23  0  0  0  0  0  0  0  0999 V2000
    1.4360    2.6881    0.0000 C   0  0  0  0  0  0  0  0  0  0  0  0
    0.7194    2.2752    0.0000 N   0  0  0  0  0  0  0  0  0  0  0  0
    0.0036    2.6893    0.0000 C   0  0  0  0  0  0  0  0  0  0  0  0
    0.7187    1.4482    0.0000 C   0  0  0  0  0  0  0  0  0  0  0  0
    1.4346    1.0341    0.0000 C   0  0  0  0  0  0  0  0  0  0  0  0
    1.4338    0.2071    0.0000 C   0  0  0  0  0  0  0  0  0  0  0  0
    0.7173   -0.2058    0.0000 N   0  0  0  0  0  0  0  0  0  0  0  0
    0.7166   -1.0328    0.0000 C   0  0  0  0  0  0  0  0  0  0  0  0
    0.0000   -1.4457    0.0000 O   0  0  0  0  0  0  0  0  0  0  0  0
    1.4324   -1.4469    0.0000 C   0  0  0  0  0  0  0  0  0  0  0  0
    1.4324   -2.2752    0.0000 C   0  0  0  0  0  0  0  0  0  0  0  0
    2.1482   -2.6893    0.0000 C   0  0  0  0  0  0  0  0  0  0  0  0
    2.8641   -2.2752    0.0000 C   0  0  0  0  0  0  0  0  0  0  0  0
    3.5859   -2.6893    0.0000 C   0  0  0  0  0  0  0  0  0  0  0  0
    4.3017   -2.2752    0.0000 C   0  0  0  0  0  0  0  0  0  0  0  0
    4.3017   -1.4469    0.0000 C   0  0  0  0  0  0  0  0  0  0  0  0
    3.5859   -1.0328    0.0000 N   0  0  0  0  0  0  0  0  0  0  0  0
    2.8641   -1.4469    0.0000 C   0  0  0  0  0  0  0  0  0  0  0  0
    2.1482   -1.0328    0.0000 C   0  0  0  0  0  0  0  0  0  0  0  0
    0.0014    0.2083    0.0000 C   0  0  0  0  0  0  0  0  0  0  0  0
    0.0022    1.0353    0.0000 C   0  0  0  0  0  0  0  0  0  0  0  0
  1  2  1  0  0  0
  2  3  1  0  0  0
  2  4  1  0  0  0
  4 21  1  0  0  0
  4  5  1  0  0  0
  5  6  1  0  0  0
  6  7  1  0  0  0
  7  8  1  0  0  0
  8  9  2  0  0  0
  8 10  1  0  0  0
 10 19  1  0  0  0
 10 11  2  0  0  0
 11 12  1  0  0  0
 12 13  2  0  0  0
 13 18  1  0  0  0
 13 14  1  0  0  0
 14 15  2  0  0  0
 15 16  1  0  0  0
 16 17  2  0  0  0
 17 18  1  0  0  0
 18 19  2  0  0  0
  7 20  1  0  0  0
 20 21  1  0  0  0
M  END
>  <Entry>
501

>  <title>
6-4251

>  <rigid docking scores>
-16.0123

>  <InChIKey>
KCCTYMZDPZUUBD-UHFFFAOYSA-N

$$$$
atoms 24 bonds 26
dotmatics
mol io
 24 26  0  0  0  0  0  0  0  0999 V2000
    4.5516   -0.1715    0.0000 O   0  0  0  0  0  0  0  0  0  0  0  0
    3.7246   -0.1722    0.0000 C   0  0  0  0  0  0  0  0  0  0  0  0
    3.3105    0.5436    0.0000 C   0  0  0  0  0  0  0  0  0  0  0  0
    3.7234    1.2602    0.0000 N   0  0  0  0  0  0  0  0  0  0  0  0
    3.2569    1.9431    0.0000 C   0  0  0  0  0  0  0  0  0  0  0  0
    3.5000    2.7335    0.0000 C   0  0  0  0  0  0  0  0  0  0  0  0
    4.2695    3.0363    0.0000 C   0  0  0  0  0  0  0  0  0  0  0  0
    4.9861    2.6235    0.0000 N   0  0  0  0  0  0  0  0  0  0  0  0
    5.1101    1.8058    0.0000 C   0  0  0  0  0  0  0  0  0  0  0  0
    4.5481    1.1991    0.0000 C   0  0  0  0  0  0  0  0  0  0  0  0
    3.3117   -0.8888    0.0000 N   0  0  0  0  0  0  0  0  0  0  0  0
    3.7259   -1.6046    0.0000 C   0  0  0  0  0  0  0  0  0  0  0  0
    4.5541   -1.6046    0.0000 C   0  0  0  0  0  0  0  0  0  0  0  0
    4.9682   -2.3205    0.0000 C   0  0  0  0  0  0  0  0  0  0  0  0
    4.5541   -3.0363    0.0000 C   0  0  0  0  0  0  0  0  0  0  0  0
    3.7259   -3.0363    0.0000 C   0  0  0  0  0  0  0  0  0  0  0  0
    3.3117   -2.3205    0.0000 C   0  0  0  0  0  0  0  0  0  0  0  0
    2.4835   -2.3205    0.0000 C   0  0  0  0  0  0  0  0  0  0  0  0
    2.0694   -3.0363    0.0000 C   0  0  0  0  0  0  0  0  0  0  0  0
    1.2411   -3.0363    0.0000 C   0  0  0  0  0  0  0  0  0  0  0  0
    0.8270   -2.3205    0.0000 C   0  0  0  0  0  0  0  0  0  0  0  0
    0.0000   -2.3205    0.0000 F   0  0  0  0  0  0  0  0  0  0  0  0
    1.2411   -1.6046    0.0000 C   0  0  0  0  0  0  0  0  0  0  0  0
    2.0694   -1.6046    0.0000 C   0  0  0  0  0  0  0  0  0  0  0  0
  1  2  2  0  0  0
  2  3  1  0  0  0
  3  4  1  0  0  0
  4 10  1  0  0  0
  4  5  1  0  0  0
  5  6  1  0  0  0
  6  7  1  0  0  0
  7  8  1  0  0  0
  8  9  1  0  0  0
  9 10  1  0  0  0
  2 11  1  0  0  0
 11 12  1  0  0  0
 12 17  1  0  0  0
 12 13  2  0  0  0
 13 14  1  0  0  0
 14 15  2  0  0  0
 15 16  1  0  0  0
 16 17  2  0  0  0
 17 18  1  0  0  0
 18 24  1  0  0  0
 18 19  2  0  0  0
 19 20  1  0  0  0
 20 21  2  0  0  0
 21 22  1  0  0  0
 21 23  1  0  0  0
 23 24  2  0  0  0
M  END
>  <Entry>
502

>  <title>
6-4487

>  <rigid docking scores>
-17.0911

>  <InChIKey>
QSAYAWUJVUOTMT-UHFFFAOYSA-N

$$$$
atoms 21 bonds 23
dotmatics
mol io
 21 23  0  0  0  0  0  0  0  0999 V2000
    7.8831    0.8295    0.0000 C   0  0  0  0  0  0  0  0  0  0  0  0
    7.1672    0.4154    0.0000 N   0  0  0  0  0  0  0  0  0  0  0  0
    7.1672   -0.4129    0.0000 C   0  0  0  0  0  0  0  0  0  0  0  0
    6.4514   -0.8270    0.0000 C   0  0  0  0  0  0  0  0  0  0  0  0
    5.7296   -0.4129    0.0000 C   0  0  0  0  0  0  0  0  0  0  0  0
    5.0138   -0.8270    0.0000 C   0  0  0  0  0  0  0  0  0  0  0  0
    4.2979   -0.4129    0.0000 C   0  0  0  0  0  0  0  0  0  0  0  0
    3.5821   -0.8270    0.0000 N   0  0  0  0  0  0  0  0  0  0  0  0
    2.8655   -0.4141    0.0000 C   0  0  0  0  0  0  0  0  0  0  0  0
    2.8648    0.4129    0.0000 O   0  0  0  0  0  0  0  0  0  0  0  0
    2.1497   -0.8282    0.0000 C   0  0  0  0  0  0  0  0  0  0  0  0
    1.4331   -0.4154    0.0000 C   0  0  0  0  0  0  0  0  0  0  0  0
    0.7173   -0.8295    0.0000 C   0  0  0  0  0  0  0  0  0  0  0  0
    0.0007   -0.4166    0.0000 C   0  0  0  0  0  0  0  0  0  0  0  0
    0.0000    0.4104    0.0000 C   0  0  0  0  0  0  0  0  0  0  0  0
    0.7158    0.8245    0.0000 C   0  0  0  0  0  0  0  0  0  0  0  0
    1.4324    0.4116    0.0000 C   0  0  0  0  0  0  0  0  0  0  0  0
    4.2979    0.4154    0.0000 C   0  0  0  0  0  0  0  0  0  0  0  0
    5.0138    0.8295    0.0000 C   0  0  0  0  0  0  0  0  0  0  0  0
    5.7296    0.4154    0.0000 C   0  0  0  0  0  0  0  0  0  0  0  0
    6.4514    0.8295    0.0000 C   0  0  0  0  0  0  0  0  0  0  0  0
  1  2  1  0  0  0
  2 21  1  0  0  0
  2  3  1  0  0  0
  3  4  1  0  0  0
  4  5  1  0  0  0
  5 20  1  0  0  0
  5  6  2  0  0  0
  6  7  1  0  0  0
  7  8  1  0  0  0
  8  9  1  0  0  0
  9 10  2  0  0  0
  9 11  1  0  0  0
 11 12  1  0  0  0
 12 17  1  0  0  0
 12 13  2  0  0  0
 13 14  1  0  0  0
 14 15  2  0  0  0
 15 16  1  0  0  0
 16 17  2  0  0  0
  7 18  2  0  0  0
 18 19  1  0  0  0
 19 20  2  0  0  0
 20 21  1  0  0  0
M  END
>  <Entry>
503

>  <title>
6-4818

>  <rigid docking scores>
-15.9153

>  <InChIKey>
UOIDLHGIAWGQNT-UHFFFAOYSA-N

$$$$
atoms 24 bonds 27
dotmatics
mol io
 24 27  0  0  0  0  0  0  0  0999 V2000
    1.4663   -3.4833    0.0000 C   0  0  0  0  0  0  0  0  0  0  0  0
    1.4604   -2.6564    0.0000 N   0  0  0  0  0  0  0  0  0  0  0  0
    0.8714   -2.0758    0.0000 C   0  0  0  0  0  0  0  0  0  0  0  0
    1.4520   -1.4868    0.0000 C   0  0  0  0  0  0  0  0  0  0  0  0
    1.4461   -0.6599    0.0000 N   0  0  0  0  0  0  0  0  0  0  0  0
    2.1594   -0.2413    0.0000 C   0  0  0  0  0  0  0  0  0  0  0  0
    2.8785   -0.6496    0.0000 O   0  0  0  0  0  0  0  0  0  0  0  0
    2.1534    0.5857    0.0000 C   0  0  0  0  0  0  0  0  0  0  0  0
    2.8693    0.9998    0.0000 C   0  0  0  0  0  0  0  0  0  0  0  0
    2.8693    1.8281    0.0000 C   0  0  0  0  0  0  0  0  0  0  0  0
    3.5851    2.2422    0.0000 C   0  0  0  0  0  0  0  0  0  0  0  0
    3.5844    3.0692    0.0000 C   0  0  0  0  0  0  0  0  0  0  0  0
    4.3003    3.4833    0.0000 C   0  0  0  0  0  0  0  0  0  0  0  0
    5.0168    3.0705    0.0000 C   0  0  0  0  0  0  0  0  0  0  0  0
    5.0175    2.2435    0.0000 C   0  0  0  0  0  0  0  0  0  0  0  0
    4.3017    1.8293    0.0000 N   0  0  0  0  0  0  0  0  0  0  0  0
    2.1534    2.2422    0.0000 N   0  0  0  0  0  0  0  0  0  0  0  0
    1.4317    1.8281    0.0000 C   0  0  0  0  0  0  0  0  0  0  0  0
    0.7158    2.2422    0.0000 C   0  0  0  0  0  0  0  0  0  0  0  0
    0.0000    1.8281    0.0000 C   0  0  0  0  0  0  0  0  0  0  0  0
    0.0000    0.9998    0.0000 C   0  0  0  0  0  0  0  0  0  0  0  0
    0.7158    0.5857    0.0000 C   0  0  0  0  0  0  0  0  0  0  0  0
    1.4317    0.9998    0.0000 C   0  0  0  0  0  0  0  0  0  0  0  0
    2.0410   -2.0674    0.0000 C   0  0  0  0  0  0  0  0  0  0  0  0
  1  2  1  0  0  0
  2 24  1  0  0  0
  2  3  1  0  0  0
  3  4  1  0  0  0
  4  5  1  0  0  0
  5  6  1  0  0  0
  6  7  2  0  0  0
  6  8  1  0  0  0
  8 23  1  0  0  0
  8  9  2  0  0  0
  9 10  1  0  0  0
 10 11  1  0  0  0
 11 16  1  0  0  0
 11 12  2  0  0  0
 12 13  1  0  0  0
 13 14  2  0  0  0
 14 15  1  0  0  0
 15 16  2  0  0  0
 10 17  2  0  0  0
 17 18  1  0  0  0
 18 23  1  0  0  0
 18 19  2  0  0  0
 19 20  1  0  0  0
 20 21  2  0  0  0
 21 22  1  0  0  0
 22 23  2  0  0  0
  4 24  1  0  0  0
M  END
>  <Entry>
504

>  <title>
6-5082

>  <rigid docking scores>
-20.5171

>  <InChIKey>
XTSNVHAHAHHBAW-UHFFFAOYSA-N

$$$$
atoms 21 bonds 24
dotmatics
mol io
 21 24  0  0  0  0  0  0  0  0999 V2000
    2.8785   -1.1653    0.0000 O   0  0  0  0  0  0  0  0  0  0  0  0
    2.1594   -0.7570    0.0000 C   0  0  0  0  0  0  0  0  0  0  0  0
    1.4461   -1.1756    0.0000 N   0  0  0  0  0  0  0  0  0  0  0  0
    1.4520   -2.0026    0.0000 C   0  0  0  0  0  0  0  0  0  0  0  0
    1.8706   -2.7158    0.0000 C   0  0  0  0  0  0  0  0  0  0  0  0
    1.0437   -2.7217    0.0000 C   0  0  0  0  0  0  0  0  0  0  0  0
    2.1534    0.0700    0.0000 C   0  0  0  0  0  0  0  0  0  0  0  0
    2.8693    0.4841    0.0000 C   0  0  0  0  0  0  0  0  0  0  0  0
    2.8693    1.3124    0.0000 C   0  0  0  0  0  0  0  0  0  0  0  0
    3.5851    1.7265    0.0000 C   0  0  0  0  0  0  0  0  0  0  0  0
    3.6709    2.5490    0.0000 N   0  0  0  0  0  0  0  0  0  0  0  0
    4.4796    2.7217    0.0000 C   0  0  0  0  0  0  0  0  0  0  0  0
    4.8938    2.0059    0.0000 C   0  0  0  0  0  0  0  0  0  0  0  0
    4.3409    1.3908    0.0000 O   0  0  0  0  0  0  0  0  0  0  0  0
    2.1534    1.7265    0.0000 N   0  0  0  0  0  0  0  0  0  0  0  0
    1.4317    1.3124    0.0000 C   0  0  0  0  0  0  0  0  0  0  0  0
    0.7158    1.7265    0.0000 C   0  0  0  0  0  0  0  0  0  0  0  0
    0.0000    1.3124    0.0000 C   0  0  0  0  0  0  0  0  0  0  0  0
    0.0000    0.4841    0.0000 C   0  0  0  0  0  0  0  0  0  0  0  0
    0.7158    0.0700    0.0000 C   0  0  0  0  0  0  0  0  0  0  0  0
    1.4317    0.4841    0.0000 C   0  0  0  0  0  0  0  0  0  0  0  0
  1  2  2  0  0  0
  2  3  1  0  0  0
  3  4  1  0  0  0
  4  6  1  0  0  0
  4  5  1  0  0  0
  5  6  1  0  0  0
  2  7  1  0  0  0
  7 21  1  0  0  0
  7  8  2  0  0  0
  8  9  1  0  0  0
  9 10  1  0  0  0
 10 14  1  0  0  0
 10 11  2  0  0  0
 11 12  1  0  0  0
 12 13  2  0  0  0
 13 14  1  0  0  0
  9 15  2  0  0  0
 15 16  1  0  0  0
 16 21  1  0  0  0
 16 17  2  0  0  0
 17 18  1  0  0  0
 18 19  2  0  0  0
 19 20  1  0  0  0
 20 21  2  0  0  0
M  END
>  <Entry>
505

>  <title>
6-5088

>  <rigid docking scores>
-17.5479

>  <InChIKey>
XAECPGTZWCLQRV-UHFFFAOYSA-N

$$$$
atoms 23 bonds 26
dotmatics
mol io
 23 26  0  0  0  0  0  0  0  0999 V2000
    1.4663   -3.3604    0.0000 C   0  0  0  0  0  0  0  0  0  0  0  0
    1.4604   -2.5334    0.0000 N   0  0  0  0  0  0  0  0  0  0  0  0
    0.8714   -1.9528    0.0000 C   0  0  0  0  0  0  0  0  0  0  0  0
    1.4520   -1.3639    0.0000 C   0  0  0  0  0  0  0  0  0  0  0  0
    1.4461   -0.5369    0.0000 N   0  0  0  0  0  0  0  0  0  0  0  0
    2.1594   -0.1183    0.0000 C   0  0  0  0  0  0  0  0  0  0  0  0
    2.8785   -0.5267    0.0000 O   0  0  0  0  0  0  0  0  0  0  0  0
    2.1534    0.7087    0.0000 C   0  0  0  0  0  0  0  0  0  0  0  0
    2.8693    1.1228    0.0000 C   0  0  0  0  0  0  0  0  0  0  0  0
    2.8693    1.9511    0.0000 C   0  0  0  0  0  0  0  0  0  0  0  0
    3.5851    2.3652    0.0000 C   0  0  0  0  0  0  0  0  0  0  0  0
    3.6709    3.1877    0.0000 N   0  0  0  0  0  0  0  0  0  0  0  0
    4.4796    3.3604    0.0000 C   0  0  0  0  0  0  0  0  0  0  0  0
    4.8938    2.6445    0.0000 C   0  0  0  0  0  0  0  0  0  0  0  0
    4.3409    2.0295    0.0000 S   0  0  0  0  0  0  0  0  0  0  0  0
    2.1534    2.3652    0.0000 N   0  0  0  0  0  0  0  0  0  0  0  0
    1.4317    1.9511    0.0000 C   0  0  0  0  0  0  0  0  0  0  0  0
    0.7158    2.3652    0.0000 C   0  0  0  0  0  0  0  0  0  0  0  0
    0.0000    1.9511    0.0000 C   0  0  0  0  0  0  0  0  0  0  0  0
    0.0000    1.1228    0.0000 C   0  0  0  0  0  0  0  0  0  0  0  0
    0.7158    0.7087    0.0000 C   0  0  0  0  0  0  0  0  0  0  0  0
    1.4317    1.1228    0.0000 C   0  0  0  0  0  0  0  0  0  0  0  0
    2.0410   -1.9445    0.0000 C   0  0  0  0  0  0  0  0  0  0  0  0
  1  2  1  0  0  0
  2 23  1  0  0  0
  2  3  1  0  0  0
  3  4  1  0  0  0
  4  5  1  0  0  0
  5  6  1  0  0  0
  6  7  2  0  0  0
  6  8  1  0  0  0
  8 22  1  0  0  0
  8  9  2  0  0  0
  9 10  1  0  0  0
 10 11  1  0  0  0
 11 15  1  0  0  0
 11 12  2  0  0  0
 12 13  1  0  0  0
 13 14  2  0  0  0
 14 15  1  0  0  0
 10 16  2  0  0  0
 16 17  1  0  0  0
 17 22  1  0  0  0
 17 18  2  0  0  0
 18 19  1  0  0  0
 19 20  2  0  0  0
 20 21  1  0  0  0
 21 22  2  0  0  0
  4 23  1  0  0  0
M  END
>  <Entry>
506

>  <title>
6-5106

>  <rigid docking scores>
-20.3243

>  <InChIKey>
SBHMLCDIICUOPW-UHFFFAOYSA-N

$$$$
atoms 23 bonds 26
dotmatics
mol io
 23 26  0  0  0  0  0  0  0  0999 V2000
    1.4663   -3.3604    0.0000 C   0  0  0  0  0  0  0  0  0  0  0  0
    1.4604   -2.5334    0.0000 N   0  0  0  0  0  0  0  0  0  0  0  0
    0.8714   -1.9528    0.0000 C   0  0  0  0  0  0  0  0  0  0  0  0
    1.4520   -1.3639    0.0000 C   0  0  0  0  0  0  0  0  0  0  0  0
    1.4461   -0.5369    0.0000 N   0  0  0  0  0  0  0  0  0  0  0  0
    2.1594   -0.1183    0.0000 C   0  0  0  0  0  0  0  0  0  0  0  0
    2.8785   -0.5267    0.0000 O   0  0  0  0  0  0  0  0  0  0  0  0
    2.1534    0.7087    0.0000 C   0  0  0  0  0  0  0  0  0  0  0  0
    2.8693    1.1228    0.0000 C   0  0  0  0  0  0  0  0  0  0  0  0
    2.8693    1.9511    0.0000 C   0  0  0  0  0  0  0  0  0  0  0  0
    3.5851    2.3652    0.0000 C   0  0  0  0  0  0  0  0  0  0  0  0
    3.6709    3.1877    0.0000 C   0  0  0  0  0  0  0  0  0  0  0  0
    4.4796    3.3604    0.0000 C   0  0  0  0  0  0  0  0  0  0  0  0
    4.8938    2.6445    0.0000 C   0  0  0  0  0  0  0  0  0  0  0  0
    4.3409    2.0295    0.0000 O   0  0  0  0  0  0  0  0  0  0  0  0
    2.1534    2.3652    0.0000 N   0  0  0  0  0  0  0  0  0  0  0  0
    1.4317    1.9511    0.0000 C   0  0  0  0  0  0  0  0  0  0  0  0
    0.7158    2.3652    0.0000 C   0  0  0  0  0  0  0  0  0  0  0  0
    0.0000    1.9511    0.0000 C   0  0  0  0  0  0  0  0  0  0  0  0
    0.0000    1.1228    0.0000 C   0  0  0  0  0  0  0  0  0  0  0  0
    0.7158    0.7087    0.0000 C   0  0  0  0  0  0  0  0  0  0  0  0
    1.4317    1.1228    0.0000 C   0  0  0  0  0  0  0  0  0  0  0  0
    2.0410   -1.9445    0.0000 C   0  0  0  0  0  0  0  0  0  0  0  0
  1  2  1  0  0  0
  2 23  1  0  0  0
  2  3  1  0  0  0
  3  4  1  0  0  0
  4  5  1  0  0  0
  5  6  1  0  0  0
  6  7  2  0  0  0
  6  8  1  0  0  0
  8 22  1  0  0  0
  8  9  2  0  0  0
  9 10  1  0  0  0
 10 11  1  0  0  0
 11 15  1  0  0  0
 11 12  2  0  0  0
 12 13  1  0  0  0
 13 14  2  0  0  0
 14 15  1  0  0  0
 10 16  2  0  0  0
 16 17  1  0  0  0
 17 22  1  0  0  0
 17 18  2  0  0  0
 18 19  1  0  0  0
 19 20  2  0  0  0
 20 21  1  0  0  0
 21 22  2  0  0  0
  4 23  1  0  0  0
M  END
>  <Entry>
507

>  <title>
6-5272

>  <rigid docking scores>
-20.3952

>  <InChIKey>
ORYJIEYGWULOLO-UHFFFAOYSA-N

$$$$
atoms 23 bonds 26
dotmatics
mol io
 23 26  0  0  0  0  0  0  0  0999 V2000
    1.4663   -3.3604    0.0000 C   0  0  0  0  0  0  0  0  0  0  0  0
    1.4604   -2.5334    0.0000 N   0  0  0  0  0  0  0  0  0  0  0  0
    0.8714   -1.9528    0.0000 C   0  0  0  0  0  0  0  0  0  0  0  0
    1.4520   -1.3639    0.0000 C   0  0  0  0  0  0  0  0  0  0  0  0
    1.4461   -0.5369    0.0000 N   0  0  0  0  0  0  0  0  0  0  0  0
    2.1594   -0.1183    0.0000 C   0  0  0  0  0  0  0  0  0  0  0  0
    2.8785   -0.5267    0.0000 O   0  0  0  0  0  0  0  0  0  0  0  0
    2.1534    0.7087    0.0000 C   0  0  0  0  0  0  0  0  0  0  0  0
    2.8693    1.1228    0.0000 C   0  0  0  0  0  0  0  0  0  0  0  0
    2.8693    1.9511    0.0000 C   0  0  0  0  0  0  0  0  0  0  0  0
    3.5851    2.3652    0.0000 C   0  0  0  0  0  0  0  0  0  0  0  0
    3.6709    3.1877    0.0000 C   0  0  0  0  0  0  0  0  0  0  0  0
    4.4796    3.3604    0.0000 C   0  0  0  0  0  0  0  0  0  0  0  0
    4.8938    2.6445    0.0000 O   0  0  0  0  0  0  0  0  0  0  0  0
    4.3409    2.0295    0.0000 N   0  0  0  0  0  0  0  0  0  0  0  0
    2.1534    2.3652    0.0000 N   0  0  0  0  0  0  0  0  0  0  0  0
    1.4317    1.9511    0.0000 C   0  0  0  0  0  0  0  0  0  0  0  0
    0.7158    2.3652    0.0000 C   0  0  0  0  0  0  0  0  0  0  0  0
    0.0000    1.9511    0.0000 C   0  0  0  0  0  0  0  0  0  0  0  0
    0.0000    1.1228    0.0000 C   0  0  0  0  0  0  0  0  0  0  0  0
    0.7158    0.7087    0.0000 C   0  0  0  0  0  0  0  0  0  0  0  0
    1.4317    1.1228    0.0000 C   0  0  0  0  0  0  0  0  0  0  0  0
    2.0410   -1.9445    0.0000 C   0  0  0  0  0  0  0  0  0  0  0  0
  1  2  1  0  0  0
  2 23  1  0  0  0
  2  3  1  0  0  0
  3  4  1  0  0  0
  4  5  1  0  0  0
  5  6  1  0  0  0
  6  7  2  0  0  0
  6  8  1  0  0  0
  8 22  1  0  0  0
  8  9  2  0  0  0
  9 10  1  0  0  0
 10 11  1  0  0  0
 11 15  2  0  0  0
 11 12  1  0  0  0
 12 13  2  0  0  0
 13 14  1  0  0  0
 14 15  1  0  0  0
 10 16  2  0  0  0
 16 17  1  0  0  0
 17 22  1  0  0  0
 17 18  2  0  0  0
 18 19  1  0  0  0
 19 20  2  0  0  0
 20 21  1  0  0  0
 21 22  2  0  0  0
  4 23  1  0  0  0
M  END
>  <Entry>
508

>  <title>
6-5283

>  <rigid docking scores>
-19.5041

>  <InChIKey>
HMAWYPLYQBXZFW-UHFFFAOYSA-N

$$$$
atoms 23 bonds 26
dotmatics
mol io
 23 26  0  0  0  0  0  0  0  0999 V2000
    1.4663   -3.3604    0.0000 C   0  0  0  0  0  0  0  0  0  0  0  0
    1.4604   -2.5334    0.0000 N   0  0  0  0  0  0  0  0  0  0  0  0
    0.8714   -1.9528    0.0000 C   0  0  0  0  0  0  0  0  0  0  0  0
    1.4520   -1.3639    0.0000 C   0  0  0  0  0  0  0  0  0  0  0  0
    1.4461   -0.5369    0.0000 N   0  0  0  0  0  0  0  0  0  0  0  0
    2.1594   -0.1183    0.0000 C   0  0  0  0  0  0  0  0  0  0  0  0
    2.8785   -0.5267    0.0000 O   0  0  0  0  0  0  0  0  0  0  0  0
    2.1534    0.7087    0.0000 C   0  0  0  0  0  0  0  0  0  0  0  0
    2.8693    1.1228    0.0000 C   0  0  0  0  0  0  0  0  0  0  0  0
    2.8693    1.9511    0.0000 C   0  0  0  0  0  0  0  0  0  0  0  0
    3.5851    2.3652    0.0000 C   0  0  0  0  0  0  0  0  0  0  0  0
    3.6709    3.1877    0.0000 N   0  0  0  0  0  0  0  0  0  0  0  0
    4.4796    3.3604    0.0000 C   0  0  0  0  0  0  0  0  0  0  0  0
    4.8938    2.6445    0.0000 C   0  0  0  0  0  0  0  0  0  0  0  0
    4.3409    2.0295    0.0000 O   0  0  0  0  0  0  0  0  0  0  0  0
    2.1534    2.3652    0.0000 N   0  0  0  0  0  0  0  0  0  0  0  0
    1.4317    1.9511    0.0000 C   0  0  0  0  0  0  0  0  0  0  0  0
    0.7158    2.3652    0.0000 C   0  0  0  0  0  0  0  0  0  0  0  0
    0.0000    1.9511    0.0000 C   0  0  0  0  0  0  0  0  0  0  0  0
    0.0000    1.1228    0.0000 C   0  0  0  0  0  0  0  0  0  0  0  0
    0.7158    0.7087    0.0000 C   0  0  0  0  0  0  0  0  0  0  0  0
    1.4317    1.1228    0.0000 C   0  0  0  0  0  0  0  0  0  0  0  0
    2.0410   -1.9445    0.0000 C   0  0  0  0  0  0  0  0  0  0  0  0
  1  2  1  0  0  0
  2 23  1  0  0  0
  2  3  1  0  0  0
  3  4  1  0  0  0
  4  5  1  0  0  0
  5  6  1  0  0  0
  6  7  2  0  0  0
  6  8  1  0  0  0
  8 22  1  0  0  0
  8  9  2  0  0  0
  9 10  1  0  0  0
 10 11  1  0  0  0
 11 15  1  0  0  0
 11 12  2  0  0  0
 12 13  1  0  0  0
 13 14  2  0  0  0
 14 15  1  0  0  0
 10 16  2  0  0  0
 16 17  1  0  0  0
 17 22  1  0  0  0
 17 18  2  0  0  0
 18 19  1  0  0  0
 19 20  2  0  0  0
 20 21  1  0  0  0
 21 22  2  0  0  0
  4 23  1  0  0  0
M  END
>  <Entry>
509

>  <title>
6-5328

>  <rigid docking scores>
-21.5275

>  <InChIKey>
TTWCNHCUPQDRGT-UHFFFAOYSA-N

$$$$
atoms 23 bonds 26
dotmatics
mol io
 23 26  0  0  0  0  0  0  0  0999 V2000
    1.4663   -3.3604    0.0000 C   0  0  0  0  0  0  0  0  0  0  0  0
    1.4604   -2.5334    0.0000 N   0  0  0  0  0  0  0  0  0  0  0  0
    0.8714   -1.9528    0.0000 C   0  0  0  0  0  0  0  0  0  0  0  0
    1.4520   -1.3639    0.0000 C   0  0  0  0  0  0  0  0  0  0  0  0
    1.4461   -0.5369    0.0000 N   0  0  0  0  0  0  0  0  0  0  0  0
    2.1594   -0.1183    0.0000 C   0  0  0  0  0  0  0  0  0  0  0  0
    2.8785   -0.5267    0.0000 O   0  0  0  0  0  0  0  0  0  0  0  0
    2.1534    0.7087    0.0000 C   0  0  0  0  0  0  0  0  0  0  0  0
    2.8693    1.1228    0.0000 C   0  0  0  0  0  0  0  0  0  0  0  0
    2.8693    1.9511    0.0000 C   0  0  0  0  0  0  0  0  0  0  0  0
    3.5851    2.3652    0.0000 C   0  0  0  0  0  0  0  0  0  0  0  0
    3.6709    3.1877    0.0000 C   0  0  0  0  0  0  0  0  0  0  0  0
    4.4796    3.3604    0.0000 S   0  0  0  0  0  0  0  0  0  0  0  0
    4.8938    2.6445    0.0000 C   0  0  0  0  0  0  0  0  0  0  0  0
    4.3409    2.0295    0.0000 N   0  0  0  0  0  0  0  0  0  0  0  0
    2.1534    2.3652    0.0000 N   0  0  0  0  0  0  0  0  0  0  0  0
    1.4317    1.9511    0.0000 C   0  0  0  0  0  0  0  0  0  0  0  0
    0.7158    2.3652    0.0000 C   0  0  0  0  0  0  0  0  0  0  0  0
    0.0000    1.9511    0.0000 C   0  0  0  0  0  0  0  0  0  0  0  0
    0.0000    1.1228    0.0000 C   0  0  0  0  0  0  0  0  0  0  0  0
    0.7158    0.7087    0.0000 C   0  0  0  0  0  0  0  0  0  0  0  0
    1.4317    1.1228    0.0000 C   0  0  0  0  0  0  0  0  0  0  0  0
    2.0410   -1.9445    0.0000 C   0  0  0  0  0  0  0  0  0  0  0  0
  1  2  1  0  0  0
  2 23  1  0  0  0
  2  3  1  0  0  0
  3  4  1  0  0  0
  4  5  1  0  0  0
  5  6  1  0  0  0
  6  7  2  0  0  0
  6  8  1  0  0  0
  8 22  1  0  0  0
  8  9  2  0  0  0
  9 10  1  0  0  0
 10 11  1  0  0  0
 11 15  1  0  0  0
 11 12  2  0  0  0
 12 13  1  0  0  0
 13 14  1  0  0  0
 14 15  2  0  0  0
 10 16  2  0  0  0
 16 17  1  0  0  0
 17 22  1  0  0  0
 17 18  2  0  0  0
 18 19  1  0  0  0
 19 20  2  0  0  0
 20 21  1  0  0  0
 21 22  2  0  0  0
  4 23  1  0  0  0
M  END
>  <Entry>
510

>  <title>
6-5333

>  <rigid docking scores>
-20.7789

>  <InChIKey>
RTYBXHXIJMXYFY-UHFFFAOYSA-N

$$$$
atoms 23 bonds 26
dotmatics
mol io
 23 26  0  0  0  0  0  0  0  0999 V2000
    1.4663   -3.3604    0.0000 C   0  0  0  0  0  0  0  0  0  0  0  0
    1.4604   -2.5334    0.0000 N   0  0  0  0  0  0  0  0  0  0  0  0
    0.8714   -1.9528    0.0000 C   0  0  0  0  0  0  0  0  0  0  0  0
    1.4520   -1.3639    0.0000 C   0  0  0  0  0  0  0  0  0  0  0  0
    1.4461   -0.5369    0.0000 N   0  0  0  0  0  0  0  0  0  0  0  0
    2.1594   -0.1183    0.0000 C   0  0  0  0  0  0  0  0  0  0  0  0
    2.8785   -0.5267    0.0000 O   0  0  0  0  0  0  0  0  0  0  0  0
    2.1534    0.7087    0.0000 C   0  0  0  0  0  0  0  0  0  0  0  0
    2.8693    1.1228    0.0000 C   0  0  0  0  0  0  0  0  0  0  0  0
    2.8693    1.9511    0.0000 C   0  0  0  0  0  0  0  0  0  0  0  0
    3.5851    2.3652    0.0000 C   0  0  0  0  0  0  0  0  0  0  0  0
    3.6709    3.1877    0.0000 C   0  0  0  0  0  0  0  0  0  0  0  0
    4.4796    3.3604    0.0000 C   0  0  0  0  0  0  0  0  0  0  0  0
    4.8938    2.6445    0.0000 S   0  0  0  0  0  0  0  0  0  0  0  0
    4.3409    2.0295    0.0000 N   0  0  0  0  0  0  0  0  0  0  0  0
    2.1534    2.3652    0.0000 N   0  0  0  0  0  0  0  0  0  0  0  0
    1.4317    1.9511    0.0000 C   0  0  0  0  0  0  0  0  0  0  0  0
    0.7158    2.3652    0.0000 C   0  0  0  0  0  0  0  0  0  0  0  0
    0.0000    1.9511    0.0000 C   0  0  0  0  0  0  0  0  0  0  0  0
    0.0000    1.1228    0.0000 C   0  0  0  0  0  0  0  0  0  0  0  0
    0.7158    0.7087    0.0000 C   0  0  0  0  0  0  0  0  0  0  0  0
    1.4317    1.1228    0.0000 C   0  0  0  0  0  0  0  0  0  0  0  0
    2.0410   -1.9445    0.0000 C   0  0  0  0  0  0  0  0  0  0  0  0
  1  2  1  0  0  0
  2 23  1  0  0  0
  2  3  1  0  0  0
  3  4  1  0  0  0
  4  5  1  0  0  0
  5  6  1  0  0  0
  6  7  2  0  0  0
  6  8  1  0  0  0
  8 22  1  0  0  0
  8  9  2  0  0  0
  9 10  1  0  0  0
 10 11  1  0  0  0
 11 15  2  0  0  0
 11 12  1  0  0  0
 12 13  2  0  0  0
 13 14  1  0  0  0
 14 15  1  0  0  0
 10 16  2  0  0  0
 16 17  1  0  0  0
 17 22  1  0  0  0
 17 18  2  0  0  0
 18 19  1  0  0  0
 19 20  2  0  0  0
 20 21  1  0  0  0
 21 22  2  0  0  0
  4 23  1  0  0  0
M  END
>  <Entry>
511

>  <title>
6-5360

>  <rigid docking scores>
-20.0258

>  <InChIKey>
DXFTVDKPWFALER-UHFFFAOYSA-N

$$$$
atoms 22 bonds 24
dotmatics
mol io
 22 24  0  0  0  0  0  0  0  0999 V2000
    3.7246    0.0000    0.0000 O   0  0  0  0  0  0  0  0  0  0  0  0
    2.8976   -0.0007    0.0000 C   0  0  0  0  0  0  0  0  0  0  0  0
    2.4835    0.7151    0.0000 C   0  0  0  0  0  0  0  0  0  0  0  0
    2.8964    1.4317    0.0000 C   0  0  0  0  0  0  0  0  0  0  0  0
    2.4822    2.1475    0.0000 C   0  0  0  0  0  0  0  0  0  0  0  0
    2.8951    2.8641    0.0000 C   0  0  0  0  0  0  0  0  0  0  0  0
    3.7221    2.8648    0.0000 C   0  0  0  0  0  0  0  0  0  0  0  0
    4.1362    2.1490    0.0000 C   0  0  0  0  0  0  0  0  0  0  0  0
    3.7234    1.4324    0.0000 C   0  0  0  0  0  0  0  0  0  0  0  0
    2.4847   -0.7173    0.0000 N   0  0  0  0  0  0  0  0  0  0  0  0
    2.8989   -1.4331    0.0000 C   0  0  0  0  0  0  0  0  0  0  0  0
    3.7271   -1.4331    0.0000 N   0  0  0  0  0  0  0  0  0  0  0  0
    4.1412   -2.1490    0.0000 C   0  0  0  0  0  0  0  0  0  0  0  0
    3.7271   -2.8648    0.0000 N   0  0  0  0  0  0  0  0  0  0  0  0
    2.8989   -2.8648    0.0000 C   0  0  0  0  0  0  0  0  0  0  0  0
    2.4847   -2.1490    0.0000 C   0  0  0  0  0  0  0  0  0  0  0  0
    1.6565   -2.1490    0.0000 C   0  0  0  0  0  0  0  0  0  0  0  0
    1.2424   -2.8648    0.0000 C   0  0  0  0  0  0  0  0  0  0  0  0
    0.4141   -2.8648    0.0000 C   0  0  0  0  0  0  0  0  0  0  0  0
    0.0000   -2.1490    0.0000 N   0  0  0  0  0  0  0  0  0  0  0  0
    0.4141   -1.4331    0.0000 C   0  0  0  0  0  0  0  0  0  0  0  0
    1.2424   -1.4331    0.0000 C   0  0  0  0  0  0  0  0  0  0  0  0
  1  2  2  0  0  0
  2  3  1  0  0  0
  3  4  1  0  0  0
  4  9  1  0  0  0
  4  5  2  0  0  0
  5  6  1  0  0  0
  6  7  2  0  0  0
  7  8  1  0  0  0
  8  9  2  0  0  0
  2 10  1  0  0  0
 10 11  1  0  0  0
 11 16  1  0  0  0
 11 12  2  0  0  0
 12 13  1  0  0  0
 13 14  2  0  0  0
 14 15  1  0  0  0
 15 16  2  0  0  0
 16 17  1  0  0  0
 17 22  1  0  0  0
 17 18  2  0  0  0
 18 19  1  0  0  0
 19 20  2  0  0  0
 20 21  1  0  0  0
 21 22  2  0  0  0
M  END
>  <Entry>
512

>  <title>
6-5696

>  <rigid docking scores>
-15.7459

>  <InChIKey>
VTTRDSFEVHJJPA-UHFFFAOYSA-N

$$$$
atoms 23 bonds 26
dotmatics
mol io
 23 26  0  0  0  0  0  0  0  0999 V2000
    1.4663   -3.3604    0.0000 C   0  0  0  0  0  0  0  0  0  0  0  0
    1.4604   -2.5334    0.0000 N   0  0  0  0  0  0  0  0  0  0  0  0
    0.8714   -1.9528    0.0000 C   0  0  0  0  0  0  0  0  0  0  0  0
    1.4520   -1.3639    0.0000 C   0  0  0  0  0  0  0  0  0  0  0  0
    1.4461   -0.5369    0.0000 N   0  0  0  0  0  0  0  0  0  0  0  0
    2.1594   -0.1183    0.0000 C   0  0  0  0  0  0  0  0  0  0  0  0
    2.8785   -0.5267    0.0000 O   0  0  0  0  0  0  0  0  0  0  0  0
    2.1534    0.7087    0.0000 C   0  0  0  0  0  0  0  0  0  0  0  0
    2.8693    1.1228    0.0000 C   0  0  0  0  0  0  0  0  0  0  0  0
    2.8693    1.9511    0.0000 C   0  0  0  0  0  0  0  0  0  0  0  0
    3.5851    2.3652    0.0000 C   0  0  0  0  0  0  0  0  0  0  0  0
    3.6709    3.1877    0.0000 C   0  0  0  0  0  0  0  0  0  0  0  0
    4.4796    3.3604    0.0000 O   0  0  0  0  0  0  0  0  0  0  0  0
    4.8938    2.6445    0.0000 C   0  0  0  0  0  0  0  0  0  0  0  0
    4.3409    2.0295    0.0000 N   0  0  0  0  0  0  0  0  0  0  0  0
    2.1534    2.3652    0.0000 N   0  0  0  0  0  0  0  0  0  0  0  0
    1.4317    1.9511    0.0000 C   0  0  0  0  0  0  0  0  0  0  0  0
    0.7158    2.3652    0.0000 C   0  0  0  0  0  0  0  0  0  0  0  0
    0.0000    1.9511    0.0000 C   0  0  0  0  0  0  0  0  0  0  0  0
    0.0000    1.1228    0.0000 C   0  0  0  0  0  0  0  0  0  0  0  0
    0.7158    0.7087    0.0000 C   0  0  0  0  0  0  0  0  0  0  0  0
    1.4317    1.1228    0.0000 C   0  0  0  0  0  0  0  0  0  0  0  0
    2.0410   -1.9445    0.0000 C   0  0  0  0  0  0  0  0  0  0  0  0
  1  2  1  0  0  0
  2 23  1  0  0  0
  2  3  1  0  0  0
  3  4  1  0  0  0
  4  5  1  0  0  0
  5  6  1  0  0  0
  6  7  2  0  0  0
  6  8  1  0  0  0
  8 22  1  0  0  0
  8  9  2  0  0  0
  9 10  1  0  0  0
 10 11  1  0  0  0
 11 15  1  0  0  0
 11 12  2  0  0  0
 12 13  1  0  0  0
 13 14  1  0  0  0
 14 15  2  0  0  0
 10 16  2  0  0  0
 16 17  1  0  0  0
 17 22  1  0  0  0
 17 18  2  0  0  0
 18 19  1  0  0  0
 19 20  2  0  0  0
 20 21  1  0  0  0
 21 22  2  0  0  0
  4 23  1  0  0  0
M  END
>  <Entry>
513

>  <title>
6-6378

>  <rigid docking scores>
-19.6305

>  <InChIKey>
ASGMXDJUTZJCHA-UHFFFAOYSA-N

$$$$
atoms 21 bonds 24
dotmatics
mol io
 21 24  0  0  0  0  0  0  0  0999 V2000
    2.8785   -1.1653    0.0000 O   0  0  0  0  0  0  0  0  0  0  0  0
    2.1594   -0.7570    0.0000 C   0  0  0  0  0  0  0  0  0  0  0  0
    1.4461   -1.1756    0.0000 N   0  0  0  0  0  0  0  0  0  0  0  0
    1.4520   -2.0026    0.0000 C   0  0  0  0  0  0  0  0  0  0  0  0
    1.8706   -2.7158    0.0000 C   0  0  0  0  0  0  0  0  0  0  0  0
    1.0437   -2.7217    0.0000 C   0  0  0  0  0  0  0  0  0  0  0  0
    2.1534    0.0700    0.0000 C   0  0  0  0  0  0  0  0  0  0  0  0
    2.8693    0.4841    0.0000 C   0  0  0  0  0  0  0  0  0  0  0  0
    2.8693    1.3124    0.0000 C   0  0  0  0  0  0  0  0  0  0  0  0
    3.5851    1.7265    0.0000 C   0  0  0  0  0  0  0  0  0  0  0  0
    3.6709    2.5490    0.0000 C   0  0  0  0  0  0  0  0  0  0  0  0
    4.4796    2.7217    0.0000 O   0  0  0  0  0  0  0  0  0  0  0  0
    4.8938    2.0059    0.0000 C   0  0  0  0  0  0  0  0  0  0  0  0
    4.3409    1.3908    0.0000 N   0  0  0  0  0  0  0  0  0  0  0  0
    2.1534    1.7265    0.0000 N   0  0  0  0  0  0  0  0  0  0  0  0
    1.4317    1.3124    0.0000 C   0  0  0  0  0  0  0  0  0  0  0  0
    0.7158    1.7265    0.0000 C   0  0  0  0  0  0  0  0  0  0  0  0
    0.0000    1.3124    0.0000 C   0  0  0  0  0  0  0  0  0  0  0  0
    0.0000    0.4841    0.0000 C   0  0  0  0  0  0  0  0  0  0  0  0
    0.7158    0.0700    0.0000 C   0  0  0  0  0  0  0  0  0  0  0  0
    1.4317    0.4841    0.0000 C   0  0  0  0  0  0  0  0  0  0  0  0
  1  2  2  0  0  0
  2  3  1  0  0  0
  3  4  1  0  0  0
  4  6  1  0  0  0
  4  5  1  0  0  0
  5  6  1  0  0  0
  2  7  1  0  0  0
  7 21  1  0  0  0
  7  8  2  0  0  0
  8  9  1  0  0  0
  9 10  1  0  0  0
 10 14  1  0  0  0
 10 11  2  0  0  0
 11 12  1  0  0  0
 12 13  1  0  0  0
 13 14  2  0  0  0
  9 15  2  0  0  0
 15 16  1  0  0  0
 16 21  1  0  0  0
 16 17  2  0  0  0
 17 18  1  0  0  0
 18 19  2  0  0  0
 19 20  1  0  0  0
 20 21  2  0  0  0
M  END
>  <Entry>
514

>  <title>
6-6682

>  <rigid docking scores>
-16.9364

>  <InChIKey>
ZNLVQNHCGSMWJL-UHFFFAOYSA-N

$$$$
atoms 20 bonds 23
dotmatics
mol io
 20 23  0  0  0  0  0  0  0  0999 V2000
    1.1069   -0.4753    0.0000 O   0  0  0  0  0  0  0  0  0  0  0  0
    1.9151   -0.6504    0.0000 C   0  0  0  0  0  0  0  0  0  0  0  0
    2.4709   -0.0381    0.0000 N   0  0  0  0  0  0  0  0  0  0  0  0
    2.2185    0.7495    0.0000 C   0  0  0  0  0  0  0  0  0  0  0  0
    2.7096    1.4180    0.0000 C   0  0  0  0  0  0  0  0  0  0  0  0
    3.5366    1.4180    0.0000 C   0  0  0  0  0  0  0  0  0  0  0  0
    4.0227    2.0870    0.0000 C   0  0  0  0  0  0  0  0  0  0  0  0
    4.8092    1.8315    0.0000 S   0  0  0  0  0  0  0  0  0  0  0  0
    4.8092    1.0045    0.0000 C   0  0  0  0  0  0  0  0  0  0  0  0
    4.0227    0.7489    0.0000 N   0  0  0  0  0  0  0  0  0  0  0  0
    2.2185    2.0865    0.0000 N   0  0  0  0  0  0  0  0  0  0  0  0
    1.4317    1.8321    0.0000 C   0  0  0  0  0  0  0  0  0  0  0  0
    0.7158    2.2462    0.0000 C   0  0  0  0  0  0  0  0  0  0  0  0
    0.0000    1.8321    0.0000 C   0  0  0  0  0  0  0  0  0  0  0  0
    0.0000    1.0038    0.0000 C   0  0  0  0  0  0  0  0  0  0  0  0
    0.7158    0.5897    0.0000 C   0  0  0  0  0  0  0  0  0  0  0  0
    1.4317    1.0038    0.0000 N   0  0  0  0  0  0  0  0  0  0  0  0
    2.1675   -1.4380    0.0000 C   0  0  0  0  0  0  0  0  0  0  0  0
    2.7799   -1.9938    0.0000 C   0  0  0  0  0  0  0  0  0  0  0  0
    1.9924   -2.2462    0.0000 C   0  0  0  0  0  0  0  0  0  0  0  0
  1  2  2  0  0  0
  2  3  1  0  0  0
  3  4  1  0  0  0
  4 17  1  0  0  0
  4  5  2  0  0  0
  5  6  1  0  0  0
  6 10  1  0  0  0
  6  7  2  0  0  0
  7  8  1  0  0  0
  8  9  1  0  0  0
  9 10  2  0  0  0
  5 11  1  0  0  0
 11 12  2  0  0  0
 12 17  1  0  0  0
 12 13  1  0  0  0
 13 14  2  0  0  0
 14 15  1  0  0  0
 15 16  2  0  0  0
 16 17  1  0  0  0
  2 18  1  0  0  0
 18 20  1  0  0  0
 18 19  1  0  0  0
 19 20  1  0  0  0
M  END
>  <Entry>
515

>  <title>
6-6701

>  <rigid docking scores>
-20.1502

>  <InChIKey>
XUKPBSDMYKGTBU-UHFFFAOYSA-N

$$$$
atoms 22 bonds 25
dotmatics
mol io
 22 25  0  0  0  0  0  0  0  0999 V2000
    3.9501    2.5990    0.0000 C   0  0  0  0  0  0  0  0  0  0  0  0
    3.5366    1.8828    0.0000 C   0  0  0  0  0  0  0  0  0  0  0  0
    2.7096    1.8828    0.0000 C   0  0  0  0  0  0  0  0  0  0  0  0
    2.2185    1.2143    0.0000 N   0  0  0  0  0  0  0  0  0  0  0  0
    1.4317    1.4687    0.0000 C   0  0  0  0  0  0  0  0  0  0  0  0
    0.7158    1.0546    0.0000 C   0  0  0  0  0  0  0  0  0  0  0  0
    0.0000    1.4687    0.0000 C   0  0  0  0  0  0  0  0  0  0  0  0
    0.0000    2.2969    0.0000 C   0  0  0  0  0  0  0  0  0  0  0  0
    0.7158    2.7111    0.0000 C   0  0  0  0  0  0  0  0  0  0  0  0
    1.4317    2.2969    0.0000 C   0  0  0  0  0  0  0  0  0  0  0  0
    2.2185    2.5513    0.0000 N   0  0  0  0  0  0  0  0  0  0  0  0
    3.9501    1.1666    0.0000 N   0  0  0  0  0  0  0  0  0  0  0  0
    4.7489    0.9526    0.0000 C   0  0  0  0  0  0  0  0  0  0  0  0
    4.5348    0.1537    0.0000 C   0  0  0  0  0  0  0  0  0  0  0  0
    4.9483   -0.5625    0.0000 O   0  0  0  0  0  0  0  0  0  0  0  0
    4.5348   -1.2787    0.0000 C   0  0  0  0  0  0  0  0  0  0  0  0
    4.9483   -1.9949    0.0000 C   0  0  0  0  0  0  0  0  0  0  0  0
    4.5348   -2.7111    0.0000 C   0  0  0  0  0  0  0  0  0  0  0  0
    3.7078   -2.7111    0.0000 C   0  0  0  0  0  0  0  0  0  0  0  0
    3.2943   -1.9949    0.0000 N   0  0  0  0  0  0  0  0  0  0  0  0
    3.7078   -1.2787    0.0000 C   0  0  0  0  0  0  0  0  0  0  0  0
    3.7360    0.3678    0.0000 C   0  0  0  0  0  0  0  0  0  0  0  0
  1  2  1  0  0  0
  2  3  1  0  0  0
  3 11  1  0  0  0
  3  4  2  0  0  0
  4  5  1  0  0  0
  5 10  1  0  0  0
  5  6  2  0  0  0
  6  7  1  0  0  0
  7  8  2  0  0  0
  8  9  1  0  0  0
  9 10  2  0  0  0
 10 11  1  0  0  0
  2 12  1  0  0  0
 12 22  1  0  0  0
 12 13  1  0  0  0
 13 14  1  0  0  0
 14 15  1  0  0  0
 15 16  1  0  0  0
 16 21  1  0  0  0
 16 17  2  0  0  0
 17 18  1  0  0  0
 18 19  2  0  0  0
 19 20  1  0  0  0
 20 21  2  0  0  0
 14 22  1  0  0  0
M  END
>  <Entry>
516

>  <title>
1-5716

>  <rigid docking scores>
-16.4546

>  <InChIKey>
ZZZFLIQLUDAFSP-UHFFFAOYSA-N

$$$$
atoms 19 bonds 21
dotmatics
mol io
 19 21  0  0  0  0  0  0  0  0999 V2000
    1.4520   -2.3621    0.0000 C   0  0  0  0  0  0  0  0  0  0  0  0
    1.4461   -1.5351    0.0000 N   0  0  0  0  0  0  0  0  0  0  0  0
    2.1594   -1.1165    0.0000 C   0  0  0  0  0  0  0  0  0  0  0  0
    2.8785   -1.5249    0.0000 O   0  0  0  0  0  0  0  0  0  0  0  0
    2.1534   -0.2896    0.0000 C   0  0  0  0  0  0  0  0  0  0  0  0
    2.8693    0.1246    0.0000 C   0  0  0  0  0  0  0  0  0  0  0  0
    2.8693    0.9528    0.0000 C   0  0  0  0  0  0  0  0  0  0  0  0
    3.5851    1.3669    0.0000 N   0  0  0  0  0  0  0  0  0  0  0  0
    3.6709    2.1895    0.0000 C   0  0  0  0  0  0  0  0  0  0  0  0
    4.4796    2.3621    0.0000 C   0  0  0  0  0  0  0  0  0  0  0  0
    4.8938    1.6463    0.0000 C   0  0  0  0  0  0  0  0  0  0  0  0
    4.3409    1.0312    0.0000 C   0  0  0  0  0  0  0  0  0  0  0  0
    2.1534    1.3669    0.0000 N   0  0  0  0  0  0  0  0  0  0  0  0
    1.4317    0.9528    0.0000 C   0  0  0  0  0  0  0  0  0  0  0  0
    0.7158    1.3669    0.0000 C   0  0  0  0  0  0  0  0  0  0  0  0
    0.0000    0.9528    0.0000 C   0  0  0  0  0  0  0  0  0  0  0  0
    0.0000    0.1246    0.0000 C   0  0  0  0  0  0  0  0  0  0  0  0
    0.7158   -0.2896    0.0000 C   0  0  0  0  0  0  0  0  0  0  0  0
    1.4317    0.1246    0.0000 C   0  0  0  0  0  0  0  0  0  0  0  0
  1  2  1  0  0  0
  2  3  1  0  0  0
  3  4  2  0  0  0
  3  5  1  0  0  0
  5 19  1  0  0  0
  5  6  2  0  0  0
  6  7  1  0  0  0
  7  8  1  0  0  0
  8 12  1  0  0  0
  8  9  1  0  0  0
  9 10  1  0  0  0
 10 11  1  0  0  0
 11 12  1  0  0  0
  7 13  2  0  0  0
 13 14  1  0  0  0
 14 19  1  0  0  0
 14 15  2  0  0  0
 15 16  1  0  0  0
 16 17  2  0  0  0
 17 18  1  0  0  0
 18 19  2  0  0  0
M  END
>  <Entry>
517

>  <title>
6-6735

>  <rigid docking scores>
-16.0681

>  <InChIKey>
QYTSECAHSNGZFU-UHFFFAOYSA-N

>  <ZINC>
ZINC000064554525

>  <Pubchem>
53016636

>  <Mcule>
MCULE-6238526507

>  <MolPort>
MolPort-010-704-249

$$$$
atoms 22 bonds 24
dotmatics
mol io
 22 24  0  0  0  0  0  0  0  0999 V2000
    3.7330    3.1110    0.0000 C   0  0  0  0  0  0  0  0  0  0  0  0
    4.2888    2.4986    0.0000 C   0  0  0  0  0  0  0  0  0  0  0  0
    5.0971    2.6738    0.0000 C   0  0  0  0  0  0  0  0  0  0  0  0
    5.6529    2.0614    0.0000 C   0  0  0  0  0  0  0  0  0  0  0  0
    5.4005    1.2739    0.0000 C   0  0  0  0  0  0  0  0  0  0  0  0
    4.5922    1.0987    0.0000 C   0  0  0  0  0  0  0  0  0  0  0  0
    4.3398    0.3112    0.0000 N   0  0  0  0  0  0  0  0  0  0  0  0
    3.5316    0.1360    0.0000 C   0  0  0  0  0  0  0  0  0  0  0  0
    2.9758    0.7484    0.0000 O   0  0  0  0  0  0  0  0  0  0  0  0
    3.2792   -0.6515    0.0000 C   0  0  0  0  0  0  0  0  0  0  0  0
    2.4709   -0.8267    0.0000 C   0  0  0  0  0  0  0  0  0  0  0  0
    2.2185   -1.6142    0.0000 N   0  0  0  0  0  0  0  0  0  0  0  0
    2.7096   -2.2827    0.0000 C   0  0  0  0  0  0  0  0  0  0  0  0
    3.5366   -2.2827    0.0000 O   0  0  0  0  0  0  0  0  0  0  0  0
    2.2185   -2.9513    0.0000 O   0  0  0  0  0  0  0  0  0  0  0  0
    1.4317   -2.6969    0.0000 C   0  0  0  0  0  0  0  0  0  0  0  0
    0.7158   -3.1110    0.0000 C   0  0  0  0  0  0  0  0  0  0  0  0
    0.0000   -2.6969    0.0000 C   0  0  0  0  0  0  0  0  0  0  0  0
    0.0000   -1.8686    0.0000 C   0  0  0  0  0  0  0  0  0  0  0  0
    0.7158   -1.4545    0.0000 C   0  0  0  0  0  0  0  0  0  0  0  0
    1.4317   -1.8686    0.0000 C   0  0  0  0  0  0  0  0  0  0  0  0
    4.0364    1.7111    0.0000 C   0  0  0  0  0  0  0  0  0  0  0  0
  1  2  1  0  0  0
  2 22  1  0  0  0
  2  3  2  0  0  0
  3  4  1  0  0  0
  4  5  2  0  0  0
  5  6  1  0  0  0
  6  7  1  0  0  0
  7  8  1  0  0  0
  8  9  2  0  0  0
  8 10  1  0  0  0
 10 11  1  0  0  0
 11 12  1  0  0  0
 12 21  1  0  0  0
 12 13  1  0  0  0
 13 14  2  0  0  0
 13 15  1  0  0  0
 15 16  1  0  0  0
 16 21  1  0  0  0
 16 17  2  0  0  0
 17 18  1  0  0  0
 18 19  2  0  0  0
 19 20  1  0  0  0
 20 21  2  0  0  0
  6 22  2  0  0  0
M  END
>  <Entry>
518

>  <title>
6-6778

>  <rigid docking scores>
-17.3905

>  <InChIKey>
DNBCLZIEYIOLHH-UHFFFAOYSA-N

>  <ZINC>
ZINC000004251607

>  <eMolecules>
1543166

>  <Pubchem>
3163762

>  <Mcule>
MCULE-7003297114

>  <MolPort>
MolPort-000-486-881

$$$$
atoms 25 bonds 28
dotmatics
mol io
 25 28  0  0  0  0  0  0  0  0999 V2000
    5.7305    2.6899    0.0000 C   0  0  0  0  0  0  0  0  0  0  0  0
    5.0147    2.2758    0.0000 C   0  0  0  0  0  0  0  0  0  0  0  0
    5.0154    1.4488    0.0000 C   0  0  0  0  0  0  0  0  0  0  0  0
    4.2995    1.0347    0.0000 N   0  0  0  0  0  0  0  0  0  0  0  0
    4.3003    0.2077    0.0000 C   0  0  0  0  0  0  0  0  0  0  0  0
    5.0168   -0.2052    0.0000 C   0  0  0  0  0  0  0  0  0  0  0  0
    5.0175   -1.0322    0.0000 C   0  0  0  0  0  0  0  0  0  0  0  0
    5.7341   -1.4451    0.0000 N   0  0  0  0  0  0  0  0  0  0  0  0
    4.3017   -1.4463    0.0000 N   0  0  0  0  0  0  0  0  0  0  0  0
    3.5851   -1.0334    0.0000 C   0  0  0  0  0  0  0  0  0  0  0  0
    2.8693   -1.4476    0.0000 N   0  0  0  0  0  0  0  0  0  0  0  0
    2.8693   -2.2758    0.0000 C   0  0  0  0  0  0  0  0  0  0  0  0
    2.1534   -2.6899    0.0000 C   0  0  0  0  0  0  0  0  0  0  0  0
    1.4317   -2.2758    0.0000 C   0  0  0  0  0  0  0  0  0  0  0  0
    0.7158   -2.6899    0.0000 C   0  0  0  0  0  0  0  0  0  0  0  0
    0.0000   -2.2758    0.0000 C   0  0  0  0  0  0  0  0  0  0  0  0
    0.0000   -1.4476    0.0000 C   0  0  0  0  0  0  0  0  0  0  0  0
    0.7158   -1.0334    0.0000 C   0  0  0  0  0  0  0  0  0  0  0  0
    1.4317   -1.4476    0.0000 C   0  0  0  0  0  0  0  0  0  0  0  0
    2.1534   -1.0334    0.0000 C   0  0  0  0  0  0  0  0  0  0  0  0
    3.5844   -0.2064    0.0000 N   0  0  0  0  0  0  0  0  0  0  0  0
    3.5830    1.4476    0.0000 C   0  0  0  0  0  0  0  0  0  0  0  0
    3.5822    2.2746    0.0000 C   0  0  0  0  0  0  0  0  0  0  0  0
    2.8657    2.6874    0.0000 C   0  0  0  0  0  0  0  0  0  0  0  0
    4.2981    2.6887    0.0000 O   0  0  0  0  0  0  0  0  0  0  0  0
  1  2  1  0  0  0
  2 25  1  0  0  0
  2  3  1  0  0  0
  3  4  1  0  0  0
  4  5  1  0  0  0
  5 21  1  0  0  0
  5  6  2  0  0  0
  6  7  1  0  0  0
  7  8  1  0  0  0
  7  9  2  0  0  0
  9 10  1  0  0  0
 10 11  1  0  0  0
 11 20  1  0  0  0
 11 12  1  0  0  0
 12 13  1  0  0  0
 13 14  1  0  0  0
 14 19  1  0  0  0
 14 15  2  0  0  0
 15 16  1  0  0  0
 16 17  2  0  0  0
 17 18  1  0  0  0
 18 19  2  0  0  0
 19 20  1  0  0  0
 10 21  2  0  0  0
  4 22  1  0  0  0
 22 23  1  0  0  0
 23 24  1  0  0  0
 23 25  1  0  0  0
M  END
>  <Entry>
519

>  <title>
6-7272

>  <rigid docking scores>
-20.1673

>  <InChIKey>
XOEMJMBILBMCOP-UHFFFAOYSA-N

$$$$
atoms 23 bonds 25
dotmatics
mol io
 23 25  0  0  0  0  0  0  0  0999 V2000
    3.5851    1.2417    0.0000 C   0  0  0  0  0  0  0  0  0  0  0  0
    2.8693    0.8276    0.0000 C   0  0  0  0  0  0  0  0  0  0  0  0
    2.1534    1.2417    0.0000 N   0  0  0  0  0  0  0  0  0  0  0  0
    1.4317    0.8276    0.0000 C   0  0  0  0  0  0  0  0  0  0  0  0
    0.7158    1.2417    0.0000 C   0  0  0  0  0  0  0  0  0  0  0  0
    0.0000    0.8276    0.0000 C   0  0  0  0  0  0  0  0  0  0  0  0
    0.0000   -0.0006    0.0000 C   0  0  0  0  0  0  0  0  0  0  0  0
    0.7158   -0.4148    0.0000 C   0  0  0  0  0  0  0  0  0  0  0  0
    1.4317   -0.0006    0.0000 C   0  0  0  0  0  0  0  0  0  0  0  0
    2.1534   -0.4148    0.0000 C   0  0  0  0  0  0  0  0  0  0  0  0
    2.1594   -1.2417    0.0000 O   0  0  0  0  0  0  0  0  0  0  0  0
    2.8693   -0.0006    0.0000 N   0  0  0  0  0  0  0  0  0  0  0  0
    3.5851   -0.4148    0.0000 N   0  0  0  0  0  0  0  0  0  0  0  0
    4.3017   -0.0019    0.0000 C   0  0  0  0  0  0  0  0  0  0  0  0
    4.3024    0.8251    0.0000 O   0  0  0  0  0  0  0  0  0  0  0  0
    5.0175   -0.4160    0.0000 C   0  0  0  0  0  0  0  0  0  0  0  0
    5.7341   -0.0031    0.0000 C   0  0  0  0  0  0  0  0  0  0  0  0
    6.4499   -0.4173    0.0000 C   0  0  0  0  0  0  0  0  0  0  0  0
    7.1665   -0.0044    0.0000 C   0  0  0  0  0  0  0  0  0  0  0  0
    7.1672    0.8226    0.0000 C   0  0  0  0  0  0  0  0  0  0  0  0
    7.8838    1.2355    0.0000 Cl  0  0  0  0  0  0  0  0  0  0  0  0
    6.4514    1.2367    0.0000 C   0  0  0  0  0  0  0  0  0  0  0  0
    5.7348    0.8239    0.0000 C   0  0  0  0  0  0  0  0  0  0  0  0
  1  2  1  0  0  0
  2 12  1  0  0  0
  2  3  2  0  0  0
  3  4  1  0  0  0
  4  9  1  0  0  0
  4  5  2  0  0  0
  5  6  1  0  0  0
  6  7  2  0  0  0
  7  8  1  0  0  0
  8  9  2  0  0  0
  9 10  1  0  0  0
 10 11  2  0  0  0
 10 12  1  0  0  0
 12 13  1  0  0  0
 13 14  1  0  0  0
 14 15  2  0  0  0
 14 16  1  0  0  0
 16 17  1  0  0  0
 17 23  1  0  0  0
 17 18  2  0  0  0
 18 19  1  0  0  0
 19 20  2  0  0  0
 20 21  1  0  0  0
 20 22  1  0  0  0
 22 23  2  0  0  0
M  END
>  <Entry>
520

>  <title>
6-7462

>  <rigid docking scores>
-15.8295

>  <InChIKey>
HNEQBVDWDRHWSL-UHFFFAOYSA-N

>  <ZINC>
ZINC000000182537

>  <eMolecules>
24302659

>  <Pubchem>
4197468

>  <Mcule>
MCULE-6598697909

>  <MolPort>
MolPort-007-556-532

>  <Japanese Chemicals>
J738.611G

$$$$
atoms 23 bonds 25
dotmatics
mol io
 23 25  0  0  0  0  0  0  0  0999 V2000
    2.2426   -3.1401    0.0000 C   0  0  0  0  0  0  0  0  0  0  0  0
    1.8785   -2.3976    0.0000 N   0  0  0  0  0  0  0  0  0  0  0  0
    1.0515   -2.4035    0.0000 C   0  0  0  0  0  0  0  0  0  0  0  0
    0.5313   -1.7606    0.0000 C   0  0  0  0  0  0  0  0  0  0  0  0
    0.7095   -0.9531    0.0000 C   0  0  0  0  0  0  0  0  0  0  0  0
    1.4520   -0.5889    0.0000 N   0  0  0  0  0  0  0  0  0  0  0  0
    1.4461    0.2380    0.0000 C   0  0  0  0  0  0  0  0  0  0  0  0
    2.1594    0.6566    0.0000 C   0  0  0  0  0  0  0  0  0  0  0  0
    2.8785    0.2483    0.0000 O   0  0  0  0  0  0  0  0  0  0  0  0
    2.1534    1.4836    0.0000 C   0  0  0  0  0  0  0  0  0  0  0  0
    2.8693    1.8977    0.0000 C   0  0  0  0  0  0  0  0  0  0  0  0
    3.5851    1.4836    0.0000 C   0  0  0  0  0  0  0  0  0  0  0  0
    4.3010    1.0695    0.0000 N   0  0  0  0  0  0  0  0  0  0  0  0
    2.8693    2.7260    0.0000 C   0  0  0  0  0  0  0  0  0  0  0  0
    2.1534    3.1401    0.0000 N   0  0  0  0  0  0  0  0  0  0  0  0
    1.4317    2.7260    0.0000 C   0  0  0  0  0  0  0  0  0  0  0  0
    0.7158    3.1401    0.0000 C   0  0  0  0  0  0  0  0  0  0  0  0
    0.0000    2.7260    0.0000 C   0  0  0  0  0  0  0  0  0  0  0  0
    0.0000    1.8977    0.0000 C   0  0  0  0  0  0  0  0  0  0  0  0
    0.7158    1.4836    0.0000 C   0  0  0  0  0  0  0  0  0  0  0  0
    1.4317    1.8977    0.0000 C   0  0  0  0  0  0  0  0  0  0  0  0
    2.1997   -0.9424    0.0000 C   0  0  0  0  0  0  0  0  0  0  0  0
    2.3895   -1.7474    0.0000 C   0  0  0  0  0  0  0  0  0  0  0  0
  1  2  1  0  0  0
  2 23  1  0  0  0
  2  3  1  0  0  0
  3  4  1  0  0  0
  4  5  1  0  0  0
  5  6  1  0  0  0
  6  7  1  0  0  0
  7  8  1  0  0  0
  8  9  2  0  0  0
  8 10  1  0  0  0
 10 21  1  0  0  0
 10 11  2  0  0  0
 11 12  1  0  0  0
 12 13  3  0  0  0
 11 14  1  0  0  0
 14 15  2  0  0  0
 15 16  1  0  0  0
 16 21  1  0  0  0
 16 17  2  0  0  0
 17 18  1  0  0  0
 18 19  2  0  0  0
 19 20  1  0  0  0
 20 21  2  0  0  0
  6 22  1  0  0  0
 22 23  1  0  0  0
M  END
>  <Entry>
521

>  <title>
6-7490

>  <rigid docking scores>
-19.3068

>  <InChIKey>
LVANSRPKXIKZQN-UHFFFAOYSA-N

$$$$
atoms 19 bonds 21
dotmatics
mol io
 19 21  0  0  0  0  0  0  0  0999 V2000
    7.1665    0.2027    0.0000 C   0  0  0  0  0  0  0  0  0  0  0  0
    6.4499   -0.2102    0.0000 N   0  0  0  0  0  0  0  0  0  0  0  0
    5.7341    0.2039    0.0000 C   0  0  0  0  0  0  0  0  0  0  0  0
    5.0175   -0.2089    0.0000 C   0  0  0  0  0  0  0  0  0  0  0  0
    5.0168   -1.0359    0.0000 C   0  0  0  0  0  0  0  0  0  0  0  0
    4.3003   -1.4488    0.0000 C   0  0  0  0  0  0  0  0  0  0  0  0
    3.5844   -1.0347    0.0000 C   0  0  0  0  0  0  0  0  0  0  0  0
    3.5851   -0.2077    0.0000 N   0  0  0  0  0  0  0  0  0  0  0  0
    2.8693    0.2064    0.0000 C   0  0  0  0  0  0  0  0  0  0  0  0
    2.8693    1.0347    0.0000 C   0  0  0  0  0  0  0  0  0  0  0  0
    2.1534    1.4488    0.0000 N   0  0  0  0  0  0  0  0  0  0  0  0
    1.4317    1.0347    0.0000 C   0  0  0  0  0  0  0  0  0  0  0  0
    0.7158    1.4488    0.0000 C   0  0  0  0  0  0  0  0  0  0  0  0
    0.0000    1.0347    0.0000 C   0  0  0  0  0  0  0  0  0  0  0  0
    0.0000    0.2064    0.0000 C   0  0  0  0  0  0  0  0  0  0  0  0
    0.7158   -0.2077    0.0000 C   0  0  0  0  0  0  0  0  0  0  0  0
    1.4317    0.2064    0.0000 C   0  0  0  0  0  0  0  0  0  0  0  0
    2.1534   -0.2077    0.0000 N   0  0  0  0  0  0  0  0  0  0  0  0
    4.3017    0.2052    0.0000 C   0  0  0  0  0  0  0  0  0  0  0  0
  1  2  1  0  0  0
  2  3  1  0  0  0
  3  4  1  0  0  0
  4 19  1  0  0  0
  4  5  1  0  0  0
  5  6  1  0  0  0
  6  7  1  0  0  0
  7  8  1  0  0  0
  8  9  1  0  0  0
  9 18  1  0  0  0
  9 10  2  0  0  0
 10 11  1  0  0  0
 11 12  2  0  0  0
 12 17  1  0  0  0
 12 13  1  0  0  0
 13 14  2  0  0  0
 14 15  1  0  0  0
 15 16  2  0  0  0
 16 17  1  0  0  0
 17 18  2  0  0  0
  8 19  1  0  0  0
M  END
>  <Entry>
522

>  <title>
6-7652

>  <rigid docking scores>
-19.6827

>  <InChIKey>
VCTYQPQBOLFQFM-UHFFFAOYSA-N

>  <Pubchem>
62361169

$$$$
atoms 22 bonds 24
dotmatics
mol io
 22 24  0  0  0  0  0  0  0  0999 V2000
    7.3573    1.3588    0.0000 C   0  0  0  0  0  0  0  0  0  0  0  0
    7.3573    0.5318    0.0000 C   0  0  0  0  0  0  0  0  0  0  0  0
    8.0735    0.1183    0.0000 C   0  0  0  0  0  0  0  0  0  0  0  0
    8.0735   -0.7087    0.0000 C   0  0  0  0  0  0  0  0  0  0  0  0
    7.3573   -1.1222    0.0000 C   0  0  0  0  0  0  0  0  0  0  0  0
    6.6411   -0.7087    0.0000 N   0  0  0  0  0  0  0  0  0  0  0  0
    5.9249   -1.1222    0.0000 C   0  0  0  0  0  0  0  0  0  0  0  0
    5.2087   -0.7087    0.0000 C   0  0  0  0  0  0  0  0  0  0  0  0
    5.2087    0.1183    0.0000 O   0  0  0  0  0  0  0  0  0  0  0  0
    4.4925   -1.1222    0.0000 N   0  0  0  0  0  0  0  0  0  0  0  0
    3.7763   -0.7087    0.0000 C   0  0  0  0  0  0  0  0  0  0  0  0
    3.0208   -1.0450    0.0000 N   0  0  0  0  0  0  0  0  0  0  0  0
    2.4674   -0.4304    0.0000 C   0  0  0  0  0  0  0  0  0  0  0  0
    1.6449   -0.5169    0.0000 C   0  0  0  0  0  0  0  0  0  0  0  0
    1.3086   -1.2724    0.0000 C   0  0  0  0  0  0  0  0  0  0  0  0
    0.4861   -1.3588    0.0000 C   0  0  0  0  0  0  0  0  0  0  0  0
    0.0000   -0.6898    0.0000 C   0  0  0  0  0  0  0  0  0  0  0  0
    0.3364    0.0657    0.0000 C   0  0  0  0  0  0  0  0  0  0  0  0
    1.1588    0.1522    0.0000 C   0  0  0  0  0  0  0  0  0  0  0  0
    2.8809    0.2858    0.0000 C   0  0  0  0  0  0  0  0  0  0  0  0
    3.6898    0.1138    0.0000 S   0  0  0  0  0  0  0  0  0  0  0  0
    6.6411    0.1183    0.0000 C   0  0  0  0  0  0  0  0  0  0  0  0
  1  2  1  0  0  0
  2 22  1  0  0  0
  2  3  1  0  0  0
  3  4  1  0  0  0
  4  5  1  0  0  0
  5  6  1  0  0  0
  6  7  1  0  0  0
  7  8  1  0  0  0
  8  9  2  0  0  0
  8 10  1  0  0  0
 10 11  1  0  0  0
 11 21  1  0  0  0
 11 12  2  0  0  0
 12 13  1  0  0  0
 13 14  1  0  0  0
 14 19  1  0  0  0
 14 15  2  0  0  0
 15 16  1  0  0  0
 16 17  2  0  0  0
 17 18  1  0  0  0
 18 19  2  0  0  0
 13 20  2  0  0  0
 20 21  1  0  0  0
  6 22  1  0  0  0
M  END
>  <Entry>
523

>  <title>
6-7692

>  <rigid docking scores>
-19.4341

>  <InChIKey>
MTPVJDOYYNTHJC-UHFFFAOYSA-N

>  <eMolecules>
2547761

>  <Pubchem>
17379664

>  <Mcule>
MCULE-9828601628

>  <MolPort>
MolPort-002-310-183

$$$$
atoms 22 bonds 24
dotmatics
mol io
 22 24  0  0  0  0  0  0  0  0999 V2000
   -3.5985    0.7162    0.0000 C   0  0  0  0  0  0  0  0  0  0  0  0
   -2.7715    0.7162    0.0000 N   0  0  0  0  0  0  0  0  0  0  0  0
   -2.3580    1.4324    0.0000 C   0  0  0  0  0  0  0  0  0  0  0  0
   -1.5310    1.4324    0.0000 C   0  0  0  0  0  0  0  0  0  0  0  0
   -1.1175    0.7162    0.0000 N   0  0  0  0  0  0  0  0  0  0  0  0
   -0.2905    0.7162    0.0000 C   0  0  0  0  0  0  0  0  0  0  0  0
    0.1230    1.4324    0.0000 C   0  0  0  0  0  0  0  0  0  0  0  0
   -0.2905    2.1486    0.0000 O   0  0  0  0  0  0  0  0  0  0  0  0
    0.9500    1.4324    0.0000 N   0  0  0  0  0  0  0  0  0  0  0  0
    1.3635    2.1486    0.0000 C   0  0  0  0  0  0  0  0  0  0  0  0
    0.9500    2.8648    0.0000 C   0  0  0  0  0  0  0  0  0  0  0  0
    1.3635    3.5810    0.0000 C   0  0  0  0  0  0  0  0  0  0  0  0
    2.1905    3.5810    0.0000 C   0  0  0  0  0  0  0  0  0  0  0  0
    2.6040    2.8648    0.0000 C   0  0  0  0  0  0  0  0  0  0  0  0
    2.1905    2.1486    0.0000 C   0  0  0  0  0  0  0  0  0  0  0  0
    2.6040    1.4324    0.0000 C   0  0  0  0  0  0  0  0  0  0  0  0
    2.2677    0.6769    0.0000 C   0  0  0  0  0  0  0  0  0  0  0  0
    2.8823    0.1235    0.0000 S   0  0  0  0  0  0  0  0  0  0  0  0
    3.5985    0.5370    0.0000 C   0  0  0  0  0  0  0  0  0  0  0  0
    3.4265    1.3460    0.0000 N   0  0  0  0  0  0  0  0  0  0  0  0
   -1.5310    0.0000    0.0000 C   0  0  0  0  0  0  0  0  0  0  0  0
   -2.3580    0.0000    0.0000 C   0  0  0  0  0  0  0  0  0  0  0  0
  1  2  1  0  0  0
  2 22  1  0  0  0
  2  3  1  0  0  0
  3  4  1  0  0  0
  4  5  1  0  0  0
  5  6  1  0  0  0
  6  7  1  0  0  0
  7  8  2  0  0  0
  7  9  1  0  0  0
  9 10  1  0  0  0
 10 15  1  0  0  0
 10 11  2  0  0  0
 11 12  1  0  0  0
 12 13  2  0  0  0
 13 14  1  0  0  0
 14 15  2  0  0  0
 15 16  1  0  0  0
 16 20  1  0  0  0
 16 17  2  0  0  0
 17 18  1  0  0  0
 18 19  1  0  0  0
 19 20  2  0  0  0
  5 21  1  0  0  0
 21 22  1  0  0  0
M  END
>  <Entry>
524

>  <title>
6-8277

>  <rigid docking scores>
-17.9265

>  <InChIKey>
PBVYIRMDVDYOFI-UHFFFAOYSA-N

$$$$
atoms 24 bonds 27
dotmatics
mol io
 24 27  0  0  0  0  0  0  0  0999 V2000
    2.3655   -3.3297    0.0000 C   0  0  0  0  0  0  0  0  0  0  0  0
    1.8746   -2.6642    0.0000 N   0  0  0  0  0  0  0  0  0  0  0  0
    1.0476   -2.6701    0.0000 C   0  0  0  0  0  0  0  0  0  0  0  0
    0.7865   -1.8854    0.0000 C   0  0  0  0  0  0  0  0  0  0  0  0
    1.4520   -1.3945    0.0000 C   0  0  0  0  0  0  0  0  0  0  0  0
    1.4461   -0.5675    0.0000 N   0  0  0  0  0  0  0  0  0  0  0  0
    2.1594   -0.1489    0.0000 C   0  0  0  0  0  0  0  0  0  0  0  0
    2.8785   -0.5573    0.0000 O   0  0  0  0  0  0  0  0  0  0  0  0
    2.1534    0.6780    0.0000 C   0  0  0  0  0  0  0  0  0  0  0  0
    2.8693    1.0922    0.0000 C   0  0  0  0  0  0  0  0  0  0  0  0
    2.8693    1.9204    0.0000 C   0  0  0  0  0  0  0  0  0  0  0  0
    3.5851    2.3345    0.0000 C   0  0  0  0  0  0  0  0  0  0  0  0
    3.6709    3.1571    0.0000 C   0  0  0  0  0  0  0  0  0  0  0  0
    4.4796    3.3297    0.0000 O   0  0  0  0  0  0  0  0  0  0  0  0
    4.8938    2.6139    0.0000 C   0  0  0  0  0  0  0  0  0  0  0  0
    4.3409    1.9988    0.0000 N   0  0  0  0  0  0  0  0  0  0  0  0
    2.1534    2.3345    0.0000 N   0  0  0  0  0  0  0  0  0  0  0  0
    1.4317    1.9204    0.0000 C   0  0  0  0  0  0  0  0  0  0  0  0
    0.7158    2.3345    0.0000 C   0  0  0  0  0  0  0  0  0  0  0  0
    0.0000    1.9204    0.0000 C   0  0  0  0  0  0  0  0  0  0  0  0
    0.0000    1.0922    0.0000 C   0  0  0  0  0  0  0  0  0  0  0  0
    0.7158    0.6780    0.0000 C   0  0  0  0  0  0  0  0  0  0  0  0
    1.4317    1.0922    0.0000 C   0  0  0  0  0  0  0  0  0  0  0  0
    2.1245   -1.8758    0.0000 C   0  0  0  0  0  0  0  0  0  0  0  0
  1  2  1  0  0  0
  2 24  1  0  0  0
  2  3  1  0  0  0
  3  4  1  0  0  0
  4  5  1  0  0  0
  5  6  1  0  0  0
  6  7  1  0  0  0
  7  8  2  0  0  0
  7  9  1  0  0  0
  9 23  1  0  0  0
  9 10  2  0  0  0
 10 11  1  0  0  0
 11 12  1  0  0  0
 12 16  1  0  0  0
 12 13  2  0  0  0
 13 14  1  0  0  0
 14 15  1  0  0  0
 15 16  2  0  0  0
 11 17  2  0  0  0
 17 18  1  0  0  0
 18 23  1  0  0  0
 18 19  2  0  0  0
 19 20  1  0  0  0
 20 21  2  0  0  0
 21 22  1  0  0  0
 22 23  2  0  0  0
  5 24  1  0  0  0
M  END
>  <Entry>
525

>  <title>
6-8555

>  <rigid docking scores>
-20.1801

>  <InChIKey>
FMCUYAOPDIFTGI-UHFFFAOYSA-N

$$$$
atoms 24 bonds 27
dotmatics
mol io
 24 27  0  0  0  0  0  0  0  0999 V2000
    4.8153    3.7383    0.0000 C   0  0  0  0  0  0  0  0  0  0  0  0
    4.4796    2.9825    0.0000 C   0  0  0  0  0  0  0  0  0  0  0  0
    4.8938    2.2666    0.0000 C   0  0  0  0  0  0  0  0  0  0  0  0
    4.3409    1.6516    0.0000 C   0  0  0  0  0  0  0  0  0  0  0  0
    3.5851    1.9873    0.0000 C   0  0  0  0  0  0  0  0  0  0  0  0
    2.8693    1.5732    0.0000 C   0  0  0  0  0  0  0  0  0  0  0  0
    2.8693    0.7449    0.0000 C   0  0  0  0  0  0  0  0  0  0  0  0
    2.1534    0.3308    0.0000 C   0  0  0  0  0  0  0  0  0  0  0  0
    2.1594   -0.4962    0.0000 C   0  0  0  0  0  0  0  0  0  0  0  0
    2.8785   -0.9046    0.0000 O   0  0  0  0  0  0  0  0  0  0  0  0
    1.4461   -0.9148    0.0000 N   0  0  0  0  0  0  0  0  0  0  0  0
    1.4520   -1.7418    0.0000 C   0  0  0  0  0  0  0  0  0  0  0  0
    2.0410   -2.3224    0.0000 C   0  0  0  0  0  0  0  0  0  0  0  0
    1.4604   -2.9113    0.0000 N   0  0  0  0  0  0  0  0  0  0  0  0
    1.4663   -3.7383    0.0000 C   0  0  0  0  0  0  0  0  0  0  0  0
    0.8714   -2.3307    0.0000 C   0  0  0  0  0  0  0  0  0  0  0  0
    1.4317    0.7449    0.0000 C   0  0  0  0  0  0  0  0  0  0  0  0
    0.7158    0.3308    0.0000 C   0  0  0  0  0  0  0  0  0  0  0  0
    0.0000    0.7449    0.0000 C   0  0  0  0  0  0  0  0  0  0  0  0
    0.0000    1.5732    0.0000 C   0  0  0  0  0  0  0  0  0  0  0  0
    0.7158    1.9873    0.0000 C   0  0  0  0  0  0  0  0  0  0  0  0
    1.4317    1.5732    0.0000 C   0  0  0  0  0  0  0  0  0  0  0  0
    2.1534    1.9873    0.0000 N   0  0  0  0  0  0  0  0  0  0  0  0
    3.6709    2.8098    0.0000 O   0  0  0  0  0  0  0  0  0  0  0  0
  1  2  1  0  0  0
  2 24  1  0  0  0
  2  3  2  0  0  0
  3  4  1  0  0  0
  4  5  2  0  0  0
  5  6  1  0  0  0
  6 23  1  0  0  0
  6  7  2  0  0  0
  7  8  1  0  0  0
  8  9  1  0  0  0
  9 10  2  0  0  0
  9 11  1  0  0  0
 11 12  1  0  0  0
 12 16  1  0  0  0
 12 13  1  0  0  0
 13 14  1  0  0  0
 14 15  1  0  0  0
 14 16  1  0  0  0
  8 17  2  0  0  0
 17 22  1  0  0  0
 17 18  1  0  0  0
 18 19  2  0  0  0
 19 20  1  0  0  0
 20 21  2  0  0  0
 21 22  1  0  0  0
 22 23  2  0  0  0
  5 24  1  0  0  0
M  END
>  <Entry>
526

>  <title>
6-8560

>  <rigid docking scores>
-19.8178

>  <InChIKey>
SOTYLMMEOXSHLL-UHFFFAOYSA-N

$$$$
atoms 20 bonds 22
dotmatics
mol io
 20 22  0  0  0  0  0  0  0  0999 V2000
    1.0629    2.1486    0.0000 O   0  0  0  0  0  0  0  0  0  0  0  0
    0.6494    1.4324    0.0000 C   0  0  0  0  0  0  0  0  0  0  0  0
    1.0629    0.7162    0.0000 N   0  0  0  0  0  0  0  0  0  0  0  0
    1.8899    0.7162    0.0000 C   0  0  0  0  0  0  0  0  0  0  0  0
    2.3034    1.4324    0.0000 C   0  0  0  0  0  0  0  0  0  0  0  0
    3.1304    1.4324    0.0000 C   0  0  0  0  0  0  0  0  0  0  0  0
    3.5439    0.7162    0.0000 C   0  0  0  0  0  0  0  0  0  0  0  0
    3.1304   -0.0000    0.0000 N   0  0  0  0  0  0  0  0  0  0  0  0
    2.3034   -0.0000    0.0000 C   0  0  0  0  0  0  0  0  0  0  0  0
   -0.1776    1.4324    0.0000 C   0  0  0  0  0  0  0  0  0  0  0  0
   -0.6637    0.7633    0.0000 C   0  0  0  0  0  0  0  0  0  0  0  0
   -1.4503    1.0189    0.0000 S   0  0  0  0  0  0  0  0  0  0  0  0
   -1.4503    1.8459    0.0000 C   0  0  0  0  0  0  0  0  0  0  0  0
   -2.1193    2.3320    0.0000 C   0  0  0  0  0  0  0  0  0  0  0  0
   -2.8748    1.9956    0.0000 C   0  0  0  0  0  0  0  0  0  0  0  0
   -3.5439    2.4817    0.0000 C   0  0  0  0  0  0  0  0  0  0  0  0
   -3.4574    3.3042    0.0000 N   0  0  0  0  0  0  0  0  0  0  0  0
   -2.7019    3.6406    0.0000 C   0  0  0  0  0  0  0  0  0  0  0  0
   -2.0329    3.1545    0.0000 C   0  0  0  0  0  0  0  0  0  0  0  0
   -0.6637    2.1015    0.0000 N   0  0  0  0  0  0  0  0  0  0  0  0
  1  2  2  0  0  0
  2  3  1  0  0  0
  3  4  1  0  0  0
  4  9  1  0  0  0
  4  5  2  0  0  0
  5  6  1  0  0  0
  6  7  2  0  0  0
  7  8  1  0  0  0
  8  9  2  0  0  0
  2 10  1  0  0  0
 10 20  1  0  0  0
 10 11  2  0  0  0
 11 12  1  0  0  0
 12 13  1  0  0  0
 13 14  1  0  0  0
 14 19  1  0  0  0
 14 15  2  0  0  0
 15 16  1  0  0  0
 16 17  2  0  0  0
 17 18  1  0  0  0
 18 19  2  0  0  0
 13 20  2  0  0  0
M  END
>  <Entry>
527

>  <title>
6-8791

>  <rigid docking scores>
-18.2875

>  <InChIKey>
KUJPUSFYFRJQST-UHFFFAOYSA-N

$$$$
atoms 20 bonds 22
dotmatics
mol io
 20 22  0  0  0  0  0  0  0  0999 V2000
    1.0629    2.1486    0.0000 O   0  0  0  0  0  0  0  0  0  0  0  0
    0.6494    1.4324    0.0000 C   0  0  0  0  0  0  0  0  0  0  0  0
    1.0629    0.7162    0.0000 N   0  0  0  0  0  0  0  0  0  0  0  0
    1.8899    0.7162    0.0000 C   0  0  0  0  0  0  0  0  0  0  0  0
    2.3034    1.4324    0.0000 C   0  0  0  0  0  0  0  0  0  0  0  0
    3.1304    1.4324    0.0000 C   0  0  0  0  0  0  0  0  0  0  0  0
    3.5439    0.7162    0.0000 C   0  0  0  0  0  0  0  0  0  0  0  0
    3.1304   -0.0000    0.0000 N   0  0  0  0  0  0  0  0  0  0  0  0
    2.3034   -0.0000    0.0000 C   0  0  0  0  0  0  0  0  0  0  0  0
   -0.1776    1.4324    0.0000 C   0  0  0  0  0  0  0  0  0  0  0  0
   -0.6637    0.7633    0.0000 C   0  0  0  0  0  0  0  0  0  0  0  0
   -1.4503    1.0189    0.0000 S   0  0  0  0  0  0  0  0  0  0  0  0
   -1.4503    1.8459    0.0000 C   0  0  0  0  0  0  0  0  0  0  0  0
   -2.1193    2.3320    0.0000 C   0  0  0  0  0  0  0  0  0  0  0  0
   -2.8748    1.9956    0.0000 C   0  0  0  0  0  0  0  0  0  0  0  0
   -3.5439    2.4817    0.0000 C   0  0  0  0  0  0  0  0  0  0  0  0
   -3.4574    3.3042    0.0000 C   0  0  0  0  0  0  0  0  0  0  0  0
   -2.7019    3.6406    0.0000 N   0  0  0  0  0  0  0  0  0  0  0  0
   -2.0329    3.1545    0.0000 C   0  0  0  0  0  0  0  0  0  0  0  0
   -0.6637    2.1015    0.0000 N   0  0  0  0  0  0  0  0  0  0  0  0
  1  2  2  0  0  0
  2  3  1  0  0  0
  3  4  1  0  0  0
  4  9  1  0  0  0
  4  5  2  0  0  0
  5  6  1  0  0  0
  6  7  2  0  0  0
  7  8  1  0  0  0
  8  9  2  0  0  0
  2 10  1  0  0  0
 10 20  1  0  0  0
 10 11  2  0  0  0
 11 12  1  0  0  0
 12 13  1  0  0  0
 13 14  1  0  0  0
 14 19  1  0  0  0
 14 15  2  0  0  0
 15 16  1  0  0  0
 16 17  2  0  0  0
 17 18  1  0  0  0
 18 19  2  0  0  0
 13 20  2  0  0  0
M  END
>  <Entry>
528

>  <title>
6-9052

>  <rigid docking scores>
-18.6535

>  <InChIKey>
NXKFYTWUAKEIEG-UHFFFAOYSA-N

$$$$
atoms 20 bonds 22
dotmatics
mol io
 20 22  0  0  0  0  0  0  0  0999 V2000
   -2.5741    2.8433    0.0000 O   0  0  0  0  0  0  0  0  0  0  0  0
   -2.1606    3.5595    0.0000 C   0  0  0  0  0  0  0  0  0  0  0  0
   -2.5741    4.2757    0.0000 C   0  0  0  0  0  0  0  0  0  0  0  0
   -3.4011    4.2757    0.0000 O   0  0  0  0  0  0  0  0  0  0  0  0
   -1.3336    3.5595    0.0000 N   0  0  0  0  0  0  0  0  0  0  0  0
   -0.9201    4.2757    0.0000 C   0  0  0  0  0  0  0  0  0  0  0  0
   -0.0931    4.2757    0.0000 C   0  0  0  0  0  0  0  0  0  0  0  0
    0.3204    3.5595    0.0000 C   0  0  0  0  0  0  0  0  0  0  0  0
   -0.0931    2.8433    0.0000 C   0  0  0  0  0  0  0  0  0  0  0  0
    0.3204    2.1271    0.0000 C   0  0  0  0  0  0  0  0  0  0  0  0
    1.1429    2.0407    0.0000 N   0  0  0  0  0  0  0  0  0  0  0  0
    1.3148    1.2317    0.0000 C   0  0  0  0  0  0  0  0  0  0  0  0
    2.0703    0.8954    0.0000 C   0  0  0  0  0  0  0  0  0  0  0  0
    2.7865    1.3089    0.0000 C   0  0  0  0  0  0  0  0  0  0  0  0
    3.4011    0.7555    0.0000 C   0  0  0  0  0  0  0  0  0  0  0  0
    3.0647   -0.0000    0.0000 S   0  0  0  0  0  0  0  0  0  0  0  0
    2.2423    0.0864    0.0000 C   0  0  0  0  0  0  0  0  0  0  0  0
    0.5986    0.8182    0.0000 N   0  0  0  0  0  0  0  0  0  0  0  0
   -0.0160    1.3716    0.0000 O   0  0  0  0  0  0  0  0  0  0  0  0
   -0.9201    2.8433    0.0000 C   0  0  0  0  0  0  0  0  0  0  0  0
  1  2  2  0  0  0
  2  3  1  0  0  0
  3  4  1  0  0  0
  2  5  1  0  0  0
  5 20  1  0  0  0
  5  6  1  0  0  0
  6  7  1  0  0  0
  7  8  1  0  0  0
  8  9  1  0  0  0
  9 10  1  0  0  0
 10 19  1  0  0  0
 10 11  2  0  0  0
 11 12  1  0  0  0
 12 13  1  0  0  0
 13 17  2  0  0  0
 13 14  1  0  0  0
 14 15  2  0  0  0
 15 16  1  0  0  0
 16 17  1  0  0  0
 12 18  2  0  0  0
 18 19  1  0  0  0
  9 20  1  0  0  0
M  END
>  <Entry>
529

>  <title>
6-9093

>  <rigid docking scores>
-17.1107

>  <InChIKey>
GOEWDVPFIYMENV-UHFFFAOYSA-N

$$$$
atoms 21 bonds 24
dotmatics
mol io
 21 24  0  0  0  0  0  0  0  0999 V2000
    7.6416   -1.0125    0.0000 C   0  0  0  0  0  0  0  0  0  0  0  0
    7.2281   -0.2963    0.0000 C   0  0  0  0  0  0  0  0  0  0  0  0
    6.4057   -0.2099    0.0000 C   0  0  0  0  0  0  0  0  0  0  0  0
    6.2337    0.5990    0.0000 C   0  0  0  0  0  0  0  0  0  0  0  0
    5.4782    0.9354    0.0000 C   0  0  0  0  0  0  0  0  0  0  0  0
    4.8092    0.4493    0.0000 N   0  0  0  0  0  0  0  0  0  0  0  0
    4.8092   -0.3777    0.0000 C   0  0  0  0  0  0  0  0  0  0  0  0
    4.0227   -0.6332    0.0000 C   0  0  0  0  0  0  0  0  0  0  0  0
    3.5366    0.0358    0.0000 C   0  0  0  0  0  0  0  0  0  0  0  0
    2.7096    0.0358    0.0000 C   0  0  0  0  0  0  0  0  0  0  0  0
    2.2185   -0.6327    0.0000 N   0  0  0  0  0  0  0  0  0  0  0  0
    1.4317   -0.3783    0.0000 C   0  0  0  0  0  0  0  0  0  0  0  0
    0.7158   -0.7924    0.0000 C   0  0  0  0  0  0  0  0  0  0  0  0
    0.0000   -0.3783    0.0000 C   0  0  0  0  0  0  0  0  0  0  0  0
    0.0000    0.4499    0.0000 C   0  0  0  0  0  0  0  0  0  0  0  0
    0.7158    0.8641    0.0000 C   0  0  0  0  0  0  0  0  0  0  0  0
    1.4317    0.4499    0.0000 C   0  0  0  0  0  0  0  0  0  0  0  0
    2.2185    0.7043    0.0000 N   0  0  0  0  0  0  0  0  0  0  0  0
    4.0227    0.7049    0.0000 C   0  0  0  0  0  0  0  0  0  0  0  0
    6.9499    1.0125    0.0000 O   0  0  0  0  0  0  0  0  0  0  0  0
    7.5645    0.4592    0.0000 N   0  0  0  0  0  0  0  0  0  0  0  0
  1  2  1  0  0  0
  2 21  2  0  0  0
  2  3  1  0  0  0
  3  4  2  0  0  0
  4  5  1  0  0  0
  5  6  1  0  0  0
  6 19  1  0  0  0
  6  7  1  0  0  0
  7  8  1  0  0  0
  8  9  1  0  0  0
  9 10  1  0  0  0
 10 18  1  0  0  0
 10 11  2  0  0  0
 11 12  1  0  0  0
 12 17  1  0  0  0
 12 13  2  0  0  0
 13 14  1  0  0  0
 14 15  2  0  0  0
 15 16  1  0  0  0
 16 17  2  0  0  0
 17 18  1  0  0  0
  9 19  1  0  0  0
  4 20  1  0  0  0
 20 21  1  0  0  0
M  END
>  <Entry>
530

>  <title>
6-9409

>  <rigid docking scores>
-15.6759

>  <InChIKey>
IKQQWAZCNXDHFI-UHFFFAOYSA-N

$$$$
atoms 25 bonds 28
dotmatics
mol io
 25 28  0  0  0  0  0  0  0  0999 V2000
    4.3024   -0.2392    0.0000 O   0  0  0  0  0  0  0  0  0  0  0  0
    4.3017    0.5878    0.0000 C   0  0  0  0  0  0  0  0  0  0  0  0
    5.0175    1.0020    0.0000 C   0  0  0  0  0  0  0  0  0  0  0  0
    5.7341    0.5891    0.0000 N   0  0  0  0  0  0  0  0  0  0  0  0
    6.4893    0.9261    0.0000 C   0  0  0  0  0  0  0  0  0  0  0  0
    6.6605    1.7352    0.0000 O   0  0  0  0  0  0  0  0  0  0  0  0
    7.0432    0.3120    0.0000 N   0  0  0  0  0  0  0  0  0  0  0  0
    6.6303   -0.4045    0.0000 C   0  0  0  0  0  0  0  0  0  0  0  0
    7.4394   -0.5758    0.0000 C   0  0  0  0  0  0  0  0  0  0  0  0
    7.5266   -1.3982    0.0000 C   0  0  0  0  0  0  0  0  0  0  0  0
    6.7714   -1.7352    0.0000 C   0  0  0  0  0  0  0  0  0  0  0  0
    6.2175   -1.1211    0.0000 C   0  0  0  0  0  0  0  0  0  0  0  0
    5.8213   -0.2333    0.0000 C   0  0  0  0  0  0  0  0  0  0  0  0
    5.2072   -0.7872    0.0000 O   0  0  0  0  0  0  0  0  0  0  0  0
    3.5851    1.0007    0.0000 N   0  0  0  0  0  0  0  0  0  0  0  0
    2.8693    0.5866    0.0000 C   0  0  0  0  0  0  0  0  0  0  0  0
    2.8693   -0.2417    0.0000 C   0  0  0  0  0  0  0  0  0  0  0  0
    2.1534   -0.6558    0.0000 C   0  0  0  0  0  0  0  0  0  0  0  0
    1.4317   -0.2417    0.0000 C   0  0  0  0  0  0  0  0  0  0  0  0
    0.7158   -0.6558    0.0000 C   0  0  0  0  0  0  0  0  0  0  0  0
    0.0000   -0.2417    0.0000 C   0  0  0  0  0  0  0  0  0  0  0  0
    0.0000    0.5866    0.0000 C   0  0  0  0  0  0  0  0  0  0  0  0
    0.7158    1.0007    0.0000 C   0  0  0  0  0  0  0  0  0  0  0  0
    1.4317    0.5866    0.0000 C   0  0  0  0  0  0  0  0  0  0  0  0
    2.1534    1.0007    0.0000 C   0  0  0  0  0  0  0  0  0  0  0  0
  1  2  2  0  0  0
  2  3  1  0  0  0
  3  4  1  0  0  0
  4 13  1  0  0  0
  4  5  1  0  0  0
  5  6  2  0  0  0
  5  7  1  0  0  0
  7  8  1  0  0  0
  8 12  1  0  0  0
  8  9  1  0  0  0
  9 10  1  0  0  0
 10 11  1  0  0  0
 11 12  1  0  0  0
  8 13  1  0  0  0
 13 14  2  0  0  0
  2 15  1  0  0  0
 15 16  1  0  0  0
 16 25  1  0  0  0
 16 17  2  0  0  0
 17 18  1  0  0  0
 18 19  2  0  0  0
 19 24  1  0  0  0
 19 20  1  0  0  0
 20 21  2  0  0  0
 21 22  1  0  0  0
 22 23  2  0  0  0
 23 24  1  0  0  0
 24 25  2  0  0  0
M  END
>  <Entry>
531

>  <title>
1-5965

>  <rigid docking scores>
-15.463

>  <InChIKey>
KEXVPZOAFNZDLI-UHFFFAOYSA-N

>  <ZINC>
ZINC000002636957

>  <eMolecules>
3193681

>  <Pubchem>
2099697

>  <Mcule>
MCULE-7166931264

>  <MolPort>
MolPort-004-268-771

$$$$
atoms 24 bonds 27
dotmatics
mol io
 24 27  0  0  0  0  0  0  0  0999 V2000
    1.4663   -3.4833    0.0000 C   0  0  0  0  0  0  0  0  0  0  0  0
    1.4604   -2.6564    0.0000 N   0  0  0  0  0  0  0  0  0  0  0  0
    0.8714   -2.0758    0.0000 C   0  0  0  0  0  0  0  0  0  0  0  0
    1.4520   -1.4868    0.0000 C   0  0  0  0  0  0  0  0  0  0  0  0
    1.4461   -0.6599    0.0000 N   0  0  0  0  0  0  0  0  0  0  0  0
    2.1594   -0.2413    0.0000 C   0  0  0  0  0  0  0  0  0  0  0  0
    2.8785   -0.6496    0.0000 O   0  0  0  0  0  0  0  0  0  0  0  0
    2.1534    0.5857    0.0000 C   0  0  0  0  0  0  0  0  0  0  0  0
    2.8693    0.9998    0.0000 C   0  0  0  0  0  0  0  0  0  0  0  0
    2.8693    1.8281    0.0000 C   0  0  0  0  0  0  0  0  0  0  0  0
    3.5851    2.2422    0.0000 C   0  0  0  0  0  0  0  0  0  0  0  0
    3.5844    3.0692    0.0000 C   0  0  0  0  0  0  0  0  0  0  0  0
    4.3003    3.4833    0.0000 C   0  0  0  0  0  0  0  0  0  0  0  0
    5.0168    3.0705    0.0000 N   0  0  0  0  0  0  0  0  0  0  0  0
    5.0175    2.2435    0.0000 C   0  0  0  0  0  0  0  0  0  0  0  0
    4.3017    1.8293    0.0000 C   0  0  0  0  0  0  0  0  0  0  0  0
    2.1534    2.2422    0.0000 N   0  0  0  0  0  0  0  0  0  0  0  0
    1.4317    1.8281    0.0000 C   0  0  0  0  0  0  0  0  0  0  0  0
    0.7158    2.2422    0.0000 C   0  0  0  0  0  0  0  0  0  0  0  0
    0.0000    1.8281    0.0000 C   0  0  0  0  0  0  0  0  0  0  0  0
    0.0000    0.9998    0.0000 C   0  0  0  0  0  0  0  0  0  0  0  0
    0.7158    0.5857    0.0000 C   0  0  0  0  0  0  0  0  0  0  0  0
    1.4317    0.9998    0.0000 C   0  0  0  0  0  0  0  0  0  0  0  0
    2.0410   -2.0674    0.0000 C   0  0  0  0  0  0  0  0  0  0  0  0
  1  2  1  0  0  0
  2 24  1  0  0  0
  2  3  1  0  0  0
  3  4  1  0  0  0
  4  5  1  0  0  0
  5  6  1  0  0  0
  6  7  2  0  0  0
  6  8  1  0  0  0
  8 23  1  0  0  0
  8  9  2  0  0  0
  9 10  1  0  0  0
 10 11  1  0  0  0
 11 16  1  0  0  0
 11 12  2  0  0  0
 12 13  1  0  0  0
 13 14  2  0  0  0
 14 15  1  0  0  0
 15 16  2  0  0  0
 10 17  2  0  0  0
 17 18  1  0  0  0
 18 23  1  0  0  0
 18 19  2  0  0  0
 19 20  1  0  0  0
 20 21  2  0  0  0
 21 22  1  0  0  0
 22 23  2  0  0  0
  4 24  1  0  0  0
M  END
>  <Entry>
532

>  <title>
6-9484

>  <rigid docking scores>
-19.8131

>  <InChIKey>
FPJRWMWMJJHFKD-UHFFFAOYSA-N

$$$$
atoms 20 bonds 22
dotmatics
mol io
 20 22  0  0  0  0  0  0  0  0999 V2000
    7.1473   -0.0006    0.0000 C   0  0  0  0  0  0  0  0  0  0  0  0
    6.4311   -0.4141    0.0000 S   0  0  0  0  0  0  0  0  0  0  0  0
    6.8446   -1.1303    0.0000 O   0  0  0  0  0  0  0  0  0  0  0  0
    5.7148   -0.8276    0.0000 O   0  0  0  0  0  0  0  0  0  0  0  0
    6.0176    0.3021    0.0000 N   0  0  0  0  0  0  0  0  0  0  0  0
    5.1906    0.3021    0.0000 C   0  0  0  0  0  0  0  0  0  0  0  0
    4.7771   -0.4141    0.0000 C   0  0  0  0  0  0  0  0  0  0  0  0
    3.9501   -0.4141    0.0000 C   0  0  0  0  0  0  0  0  0  0  0  0
    3.5366    0.3021    0.0000 N   0  0  0  0  0  0  0  0  0  0  0  0
    2.7096    0.3021    0.0000 C   0  0  0  0  0  0  0  0  0  0  0  0
    2.2185   -0.3664    0.0000 N   0  0  0  0  0  0  0  0  0  0  0  0
    1.4317   -0.1120    0.0000 C   0  0  0  0  0  0  0  0  0  0  0  0
    0.7158   -0.5262    0.0000 C   0  0  0  0  0  0  0  0  0  0  0  0
    0.0000   -0.1120    0.0000 C   0  0  0  0  0  0  0  0  0  0  0  0
    0.0000    0.7162    0.0000 C   0  0  0  0  0  0  0  0  0  0  0  0
    0.7158    1.1303    0.0000 C   0  0  0  0  0  0  0  0  0  0  0  0
    1.4317    0.7162    0.0000 C   0  0  0  0  0  0  0  0  0  0  0  0
    2.2185    0.9706    0.0000 S   0  0  0  0  0  0  0  0  0  0  0  0
    3.9501    1.0183    0.0000 C   0  0  0  0  0  0  0  0  0  0  0  0
    4.7771    1.0183    0.0000 C   0  0  0  0  0  0  0  0  0  0  0  0
  1  2  1  0  0  0
  2  3  2  0  0  0
  2  4  2  0  0  0
  2  5  1  0  0  0
  5  6  1  0  0  0
  6 20  1  0  0  0
  6  7  1  0  0  0
  7  8  1  0  0  0
  8  9  1  0  0  0
  9 10  1  0  0  0
 10 18  1  0  0  0
 10 11  2  0  0  0
 11 12  1  0  0  0
 12 17  1  0  0  0
 12 13  2  0  0  0
 13 14  1  0  0  0
 14 15  2  0  0  0
 15 16  1  0  0  0
 16 17  2  0  0  0
 17 18  1  0  0  0
  9 19  1  0  0  0
 19 20  1  0  0  0
M  END
>  <Entry>
533

>  <title>
6-9519

>  <rigid docking scores>
-15.7756

>  <InChIKey>
FQARNNFEMCJNPA-UHFFFAOYSA-N

>  <ZINC>
ZINC000030676397

>  <Pubchem>
37817116

>  <Mcule>
MCULE-2552765423

>  <MolPort>
MolPort-009-428-597

$$$$
atoms 20 bonds 22
dotmatics
mol io
 20 22  0  0  0  0  0  0  0  0999 V2000
   -3.3371    1.5982    0.0000 C   0  0  0  0  0  0  0  0  0  0  0  0
   -2.5101    1.5982    0.0000 C   0  0  0  0  0  0  0  0  0  0  0  0
   -2.0966    2.3144    0.0000 C   0  0  0  0  0  0  0  0  0  0  0  0
   -1.2696    2.3144    0.0000 N   0  0  0  0  0  0  0  0  0  0  0  0
   -0.8561    3.0306    0.0000 C   0  0  0  0  0  0  0  0  0  0  0  0
   -0.0291    3.0306    0.0000 C   0  0  0  0  0  0  0  0  0  0  0  0
    0.4570    3.6997    0.0000 N   0  0  0  0  0  0  0  0  0  0  0  0
    1.2435    3.4441    0.0000 N   0  0  0  0  0  0  0  0  0  0  0  0
    1.2435    2.6171    0.0000 C   0  0  0  0  0  0  0  0  0  0  0  0
    1.9126    2.1310    0.0000 C   0  0  0  0  0  0  0  0  0  0  0  0
    2.6681    2.4674    0.0000 C   0  0  0  0  0  0  0  0  0  0  0  0
    3.3371    1.9813    0.0000 C   0  0  0  0  0  0  0  0  0  0  0  0
    3.2507    1.1588    0.0000 C   0  0  0  0  0  0  0  0  0  0  0  0
    2.4952    0.8225    0.0000 C   0  0  0  0  0  0  0  0  0  0  0  0
    2.4087   -0.0000    0.0000 F   0  0  0  0  0  0  0  0  0  0  0  0
    1.8261    1.3086    0.0000 C   0  0  0  0  0  0  0  0  0  0  0  0
    0.4570    2.3616    0.0000 O   0  0  0  0  0  0  0  0  0  0  0  0
   -0.8561    1.5982    0.0000 C   0  0  0  0  0  0  0  0  0  0  0  0
   -1.2696    0.8820    0.0000 C   0  0  0  0  0  0  0  0  0  0  0  0
   -2.0966    0.8820    0.0000 N   0  0  0  0  0  0  0  0  0  0  0  0
  1  2  1  0  0  0
  2 20  1  0  0  0
  2  3  1  0  0  0
  3  4  1  0  0  0
  4  5  1  0  0  0
  5  6  1  0  0  0
  6 17  1  0  0  0
  6  7  2  0  0  0
  7  8  1  0  0  0
  8  9  2  0  0  0
  9 10  1  0  0  0
 10 16  1  0  0  0
 10 11  2  0  0  0
 11 12  1  0  0  0
 12 13  2  0  0  0
 13 14  1  0  0  0
 14 15  1  0  0  0
 14 16  2  0  0  0
  9 17  1  0  0  0
  4 18  1  0  0  0
 18 19  1  0  0  0
 19 20  1  0  0  0
M  END
>  <Entry>
534

>  <title>
6-9755

>  <rigid docking scores>
-19.5288

>  <InChIKey>
NVZUZCUPDQCAEO-UHFFFAOYSA-N

$$$$
atoms 21 bonds 23
dotmatics
mol io
 21 23  0  0  0  0  0  0  0  0999 V2000
   -3.1012    3.4575    0.0000 C   0  0  0  0  0  0  0  0  0  0  0  0
   -2.2743    3.4575    0.0000 N   0  0  0  0  0  0  0  0  0  0  0  0
   -1.8607    4.1737    0.0000 C   0  0  0  0  0  0  0  0  0  0  0  0
   -1.0338    4.1737    0.0000 C   0  0  0  0  0  0  0  0  0  0  0  0
   -0.6202    3.4575    0.0000 C   0  0  0  0  0  0  0  0  0  0  0  0
    0.2068    3.4575    0.0000 C   0  0  0  0  0  0  0  0  0  0  0  0
    0.6202    4.1737    0.0000 O   0  0  0  0  0  0  0  0  0  0  0  0
    0.6202    2.7413    0.0000 N   0  0  0  0  0  0  0  0  0  0  0  0
    1.4473    2.7413    0.0000 C   0  0  0  0  0  0  0  0  0  0  0  0
    1.8607    3.4575    0.0000 C   0  0  0  0  0  0  0  0  0  0  0  0
    2.6878    3.4575    0.0000 C   0  0  0  0  0  0  0  0  0  0  0  0
    3.1012    2.7413    0.0000 C   0  0  0  0  0  0  0  0  0  0  0  0
    2.6878    2.0251    0.0000 C   0  0  0  0  0  0  0  0  0  0  0  0
    1.8607    2.0251    0.0000 C   0  0  0  0  0  0  0  0  0  0  0  0
    1.4473    1.3089    0.0000 C   0  0  0  0  0  0  0  0  0  0  0  0
    1.7836    0.5534    0.0000 C   0  0  0  0  0  0  0  0  0  0  0  0
    1.1690   -0.0000    0.0000 C   0  0  0  0  0  0  0  0  0  0  0  0
    0.4528    0.4135    0.0000 N   0  0  0  0  0  0  0  0  0  0  0  0
    0.6248    1.2224    0.0000 O   0  0  0  0  0  0  0  0  0  0  0  0
   -1.0338    2.7413    0.0000 C   0  0  0  0  0  0  0  0  0  0  0  0
   -1.8607    2.7413    0.0000 C   0  0  0  0  0  0  0  0  0  0  0  0
  1  2  1  0  0  0
  2 21  1  0  0  0
  2  3  1  0  0  0
  3  4  1  0  0  0
  4  5  1  0  0  0
  5  6  1  0  0  0
  6  7  2  0  0  0
  6  8  1  0  0  0
  8  9  1  0  0  0
  9 14  1  0  0  0
  9 10  2  0  0  0
 10 11  1  0  0  0
 11 12  2  0  0  0
 12 13  1  0  0  0
 13 14  2  0  0  0
 14 15  1  0  0  0
 15 19  1  0  0  0
 15 16  2  0  0  0
 16 17  1  0  0  0
 17 18  2  0  0  0
 18 19  1  0  0  0
  5 20  1  0  0  0
 20 21  1  0  0  0
M  END
>  <Entry>
535

>  <title>
6-9899

>  <rigid docking scores>
-21.0301

>  <InChIKey>
CXOJEKDWMBLGHZ-UHFFFAOYSA-N

$$$$
atoms 20 bonds 22
dotmatics
mol io
 20 22  0  0  0  0  0  0  0  0999 V2000
    6.4311   -2.2046    0.0000 C   0  0  0  0  0  0  0  0  0  0  0  0
    6.0176   -1.4884    0.0000 N   0  0  0  0  0  0  0  0  0  0  0  0
    5.1906   -1.4884    0.0000 C   0  0  0  0  0  0  0  0  0  0  0  0
    4.7771   -0.7722    0.0000 C   0  0  0  0  0  0  0  0  0  0  0  0
    5.1906   -0.0560    0.0000 N   0  0  0  0  0  0  0  0  0  0  0  0
    4.7771    0.6602    0.0000 C   0  0  0  0  0  0  0  0  0  0  0  0
    5.1906    1.3764    0.0000 O   0  0  0  0  0  0  0  0  0  0  0  0
    3.9501    0.6602    0.0000 C   0  0  0  0  0  0  0  0  0  0  0  0
    3.5366    1.3764    0.0000 O   0  0  0  0  0  0  0  0  0  0  0  0
    2.7096    1.3764    0.0000 C   0  0  0  0  0  0  0  0  0  0  0  0
    2.2185    0.7079    0.0000 N   0  0  0  0  0  0  0  0  0  0  0  0
    1.4317    0.9623    0.0000 C   0  0  0  0  0  0  0  0  0  0  0  0
    0.7158    0.5481    0.0000 C   0  0  0  0  0  0  0  0  0  0  0  0
    0.0000    0.9623    0.0000 C   0  0  0  0  0  0  0  0  0  0  0  0
    0.0000    1.7905    0.0000 C   0  0  0  0  0  0  0  0  0  0  0  0
    0.7158    2.2046    0.0000 C   0  0  0  0  0  0  0  0  0  0  0  0
    1.4317    1.7905    0.0000 C   0  0  0  0  0  0  0  0  0  0  0  0
    2.2185    2.0449    0.0000 S   0  0  0  0  0  0  0  0  0  0  0  0
    6.0176   -0.0560    0.0000 C   0  0  0  0  0  0  0  0  0  0  0  0
    6.4311   -0.7722    0.0000 C   0  0  0  0  0  0  0  0  0  0  0  0
  1  2  1  0  0  0
  2 20  1  0  0  0
  2  3  1  0  0  0
  3  4  1  0  0  0
  4  5  1  0  0  0
  5  6  1  0  0  0
  6  7  2  0  0  0
  6  8  1  0  0  0
  8  9  1  0  0  0
  9 10  1  0  0  0
 10 18  1  0  0  0
 10 11  2  0  0  0
 11 12  1  0  0  0
 12 17  1  0  0  0
 12 13  2  0  0  0
 13 14  1  0  0  0
 14 15  2  0  0  0
 15 16  1  0  0  0
 16 17  2  0  0  0
 17 18  1  0  0  0
  5 19  1  0  0  0
 19 20  1  0  0  0
M  END
>  <Entry>
536

>  <title>
6-9966

>  <rigid docking scores>
-16.3356

>  <InChIKey>
BNPIDVXITJNSEQ-UHFFFAOYSA-N

$$$$
atoms 24 bonds 25
dotmatics
mol io
 24 25  0  0  0  0  0  0  0  0999 V2000
    3.3167   -2.1493    0.0000 C   0  0  0  0  0  0  0  0  0  0  0  0
    4.1437   -2.1486    0.0000 C   0  0  0  0  0  0  0  0  0  0  0  0
    4.5579   -2.8645    0.0000 C   0  0  0  0  0  0  0  0  0  0  0  0
    4.5566   -1.4320    0.0000 C   0  0  0  0  0  0  0  0  0  0  0  0
    5.2732   -1.8449    0.0000 C   0  0  0  0  0  0  0  0  0  0  0  0
    3.8400   -1.0192    0.0000 C   0  0  0  0  0  0  0  0  0  0  0  0
    4.9695   -0.7155    0.0000 N   0  0  0  0  0  0  0  0  0  0  0  0
    4.5554    0.0004    0.0000 C   0  0  0  0  0  0  0  0  0  0  0  0
    3.7284   -0.0004    0.0000 O   0  0  0  0  0  0  0  0  0  0  0  0
    4.9682    0.7169    0.0000 C   0  0  0  0  0  0  0  0  0  0  0  0
    4.5541    1.4328    0.0000 N   0  0  0  0  0  0  0  0  0  0  0  0
    3.7259    1.4328    0.0000 N   0  0  0  0  0  0  0  0  0  0  0  0
    3.3117    2.1486    0.0000 C   0  0  0  0  0  0  0  0  0  0  0  0
    2.4835    2.1486    0.0000 C   0  0  0  0  0  0  0  0  0  0  0  0
    2.0694    1.4328    0.0000 C   0  0  0  0  0  0  0  0  0  0  0  0
    1.2411    1.4328    0.0000 C   0  0  0  0  0  0  0  0  0  0  0  0
    0.8270    2.1486    0.0000 C   0  0  0  0  0  0  0  0  0  0  0  0
    0.0000    2.1486    0.0000 F   0  0  0  0  0  0  0  0  0  0  0  0
    1.2411    2.8645    0.0000 C   0  0  0  0  0  0  0  0  0  0  0  0
    2.0694    2.8645    0.0000 C   0  0  0  0  0  0  0  0  0  0  0  0
    3.7259    2.8645    0.0000 C   0  0  0  0  0  0  0  0  0  0  0  0
    4.5541    2.8645    0.0000 C   0  0  0  0  0  0  0  0  0  0  0  0
    4.9682    2.1486    0.0000 C   0  0  0  0  0  0  0  0  0  0  0  0
    5.7952    2.1486    0.0000 O   0  0  0  0  0  0  0  0  0  0  0  0
  1  2  1  0  0  0
  2  3  1  0  0  0
  2  4  1  0  0  0
  4  5  1  0  0  0
  4  6  1  0  0  0
  4  7  1  0  0  0
  7  8  1  0  0  0
  8  9  2  0  0  0
  8 10  1  0  0  0
 10 11  1  0  0  0
 11 23  1  0  0  0
 11 12  1  0  0  0
 12 13  2  0  0  0
 13 14  1  0  0  0
 14 20  1  0  0  0
 14 15  2  0  0  0
 15 16  1  0  0  0
 16 17  2  0  0  0
 17 18  1  0  0  0
 17 19  1  0  0  0
 19 20  2  0  0  0
 13 21  1  0  0  0
 21 22  2  0  0  0
 22 23  1  0  0  0
 23 24  2  0  0  0
M  END
>  <Entry>
537

>  <title>
7-23

>  <rigid docking scores>
-15.8373

>  <InChIKey>
MROXRQOTHOIVPL-UHFFFAOYSA-N

$$$$
atoms 22 bonds 24
dotmatics
mol io
 22 24  0  0  0  0  0  0  0  0999 V2000
    2.9021    3.0999    0.0000 C   0  0  0  0  0  0  0  0  0  0  0  0
    2.8962    2.2729    0.0000 O   0  0  0  0  0  0  0  0  0  0  0  0
    3.6094    1.8543    0.0000 C   0  0  0  0  0  0  0  0  0  0  0  0
    4.3286    2.2627    0.0000 C   0  0  0  0  0  0  0  0  0  0  0  0
    5.0418    1.8441    0.0000 C   0  0  0  0  0  0  0  0  0  0  0  0
    5.0359    1.0171    0.0000 C   0  0  0  0  0  0  0  0  0  0  0  0
    4.3168    0.6087    0.0000 C   0  0  0  0  0  0  0  0  0  0  0  0
    3.6035    1.0273    0.0000 C   0  0  0  0  0  0  0  0  0  0  0  0
    2.8844    0.6189    0.0000 C   0  0  0  0  0  0  0  0  0  0  0  0
    2.8785   -0.2080    0.0000 N   0  0  0  0  0  0  0  0  0  0  0  0
    2.1594   -0.6164    0.0000 C   0  0  0  0  0  0  0  0  0  0  0  0
    1.4461   -0.1978    0.0000 O   0  0  0  0  0  0  0  0  0  0  0  0
    2.1534   -1.4434    0.0000 N   0  0  0  0  0  0  0  0  0  0  0  0
    2.8693   -1.8575    0.0000 C   0  0  0  0  0  0  0  0  0  0  0  0
    2.8693   -2.6858    0.0000 C   0  0  0  0  0  0  0  0  0  0  0  0
    2.1534   -3.0999    0.0000 O   0  0  0  0  0  0  0  0  0  0  0  0
    1.4317   -2.6858    0.0000 C   0  0  0  0  0  0  0  0  0  0  0  0
    0.7158   -3.0999    0.0000 C   0  0  0  0  0  0  0  0  0  0  0  0
    0.0000   -2.6858    0.0000 C   0  0  0  0  0  0  0  0  0  0  0  0
    0.0000   -1.8575    0.0000 C   0  0  0  0  0  0  0  0  0  0  0  0
    0.7158   -1.4434    0.0000 C   0  0  0  0  0  0  0  0  0  0  0  0
    1.4317   -1.8575    0.0000 C   0  0  0  0  0  0  0  0  0  0  0  0
  1  2  1  0  0  0
  2  3  1  0  0  0
  3  8  1  0  0  0
  3  4  2  0  0  0
  4  5  1  0  0  0
  5  6  2  0  0  0
  6  7  1  0  0  0
  7  8  2  0  0  0
  8  9  1  0  0  0
  9 10  1  0  0  0
 10 11  1  0  0  0
 11 12  2  0  0  0
 11 13  1  0  0  0
 13 22  1  0  0  0
 13 14  1  0  0  0
 14 15  1  0  0  0
 15 16  1  0  0  0
 16 17  1  0  0  0
 17 22  1  0  0  0
 17 18  2  0  0  0
 18 19  1  0  0  0
 19 20  2  0  0  0
 20 21  1  0  0  0
 21 22  2  0  0  0
M  END
>  <Entry>
538

>  <title>
7-93

>  <rigid docking scores>
-16.6287

>  <InChIKey>
ZMHPCAQIXLWDMR-UHFFFAOYSA-N

$$$$
atoms 20 bonds 23
dotmatics
mol io
 20 23  0  0  0  0  0  0  0  0999 V2000
   -3.2069    0.7162    0.0000 C   0  0  0  0  0  0  0  0  0  0  0  0
   -2.7934    1.4324    0.0000 C   0  0  0  0  0  0  0  0  0  0  0  0
   -1.9664    1.4324    0.0000 C   0  0  0  0  0  0  0  0  0  0  0  0
   -1.5529    2.1486    0.0000 C   0  0  0  0  0  0  0  0  0  0  0  0
   -1.8893    2.9041    0.0000 N   0  0  0  0  0  0  0  0  0  0  0  0
   -1.2747    3.4575    0.0000 N   0  0  0  0  0  0  0  0  0  0  0  0
   -0.5585    3.0440    0.0000 C   0  0  0  0  0  0  0  0  0  0  0  0
    0.1970    3.3804    0.0000 C   0  0  0  0  0  0  0  0  0  0  0  0
    0.3690    4.1893    0.0000 C   0  0  0  0  0  0  0  0  0  0  0  0
    1.1914    4.2757    0.0000 C   0  0  0  0  0  0  0  0  0  0  0  0
    1.5278    3.5202    0.0000 N   0  0  0  0  0  0  0  0  0  0  0  0
    2.3367    3.3483    0.0000 C   0  0  0  0  0  0  0  0  0  0  0  0
    2.5923    2.5618    0.0000 C   0  0  0  0  0  0  0  0  0  0  0  0
    3.2069    2.0084    0.0000 C   0  0  0  0  0  0  0  0  0  0  0  0
    2.4204    1.7528    0.0000 C   0  0  0  0  0  0  0  0  0  0  0  0
    0.9132    2.9669    0.0000 C   0  0  0  0  0  0  0  0  0  0  0  0
   -0.7304    2.2351    0.0000 O   0  0  0  0  0  0  0  0  0  0  0  0
   -1.5529    0.7162    0.0000 C   0  0  0  0  0  0  0  0  0  0  0  0
   -1.9664    0.0000    0.0000 C   0  0  0  0  0  0  0  0  0  0  0  0
   -2.7934    0.0000    0.0000 N   0  0  0  0  0  0  0  0  0  0  0  0
  1 20  1  0  0  0
  1  2  2  0  0  0
  2  3  1  0  0  0
  3  4  1  0  0  0
  4 17  1  0  0  0
  4  5  2  0  0  0
  5  6  1  0  0  0
  6  7  2  0  0  0
  7  8  1  0  0  0
  8 16  1  0  0  0
  8  9  1  0  0  0
  9 10  1  0  0  0
 10 11  1  0  0  0
 11 12  1  0  0  0
 12 13  1  0  0  0
 13 15  1  0  0  0
 13 14  1  0  0  0
 14 15  1  0  0  0
 11 16  1  0  0  0
  7 17  1  0  0  0
  3 18  2  0  0  0
 18 19  1  0  0  0
 19 20  2  0  0  0
M  END
>  <Entry>
539

>  <title>
7-241

>  <rigid docking scores>
-17.5238

>  <InChIKey>
GXVNOHLLIGVYDO-UHFFFAOYSA-N

$$$$
atoms 19 bonds 21
dotmatics
mol io
 19 21  0  0  0  0  0  0  0  0999 V2000
   -3.4912    3.1068    0.0000 C   0  0  0  0  0  0  0  0  0  0  0  0
   -2.6642    3.1068    0.0000 N   0  0  0  0  0  0  0  0  0  0  0  0
   -2.2507    3.8230    0.0000 C   0  0  0  0  0  0  0  0  0  0  0  0
   -1.4237    3.8230    0.0000 C   0  0  0  0  0  0  0  0  0  0  0  0
   -1.0102    3.1068    0.0000 N   0  0  0  0  0  0  0  0  0  0  0  0
   -0.1832    3.1068    0.0000 C   0  0  0  0  0  0  0  0  0  0  0  0
    0.2303    2.3906    0.0000 C   0  0  0  0  0  0  0  0  0  0  0  0
    1.0528    2.3041    0.0000 C   0  0  0  0  0  0  0  0  0  0  0  0
    1.2247    1.4952    0.0000 C   0  0  0  0  0  0  0  0  0  0  0  0
    1.9802    1.1588    0.0000 C   0  0  0  0  0  0  0  0  0  0  0  0
    2.6493    1.6449    0.0000 C   0  0  0  0  0  0  0  0  0  0  0  0
    3.4048    1.3086    0.0000 C   0  0  0  0  0  0  0  0  0  0  0  0
    3.4912    0.4861    0.0000 C   0  0  0  0  0  0  0  0  0  0  0  0
    2.8222   -0.0000    0.0000 N   0  0  0  0  0  0  0  0  0  0  0  0
    2.0667    0.3364    0.0000 C   0  0  0  0  0  0  0  0  0  0  0  0
    0.5085    1.0817    0.0000 N   0  0  0  0  0  0  0  0  0  0  0  0
   -0.1061    1.6351    0.0000 O   0  0  0  0  0  0  0  0  0  0  0  0
   -1.4237    2.3906    0.0000 C   0  0  0  0  0  0  0  0  0  0  0  0
   -2.2507    2.3906    0.0000 C   0  0  0  0  0  0  0  0  0  0  0  0
  1  2  1  0  0  0
  2 19  1  0  0  0
  2  3  1  0  0  0
  3  4  1  0  0  0
  4  5  1  0  0  0
  5  6  1  0  0  0
  6  7  1  0  0  0
  7 17  1  0  0  0
  7  8  2  0  0  0
  8  9  1  0  0  0
  9 10  1  0  0  0
 10 15  1  0  0  0
 10 11  2  0  0  0
 11 12  1  0  0  0
 12 13  2  0  0  0
 13 14  1  0  0  0
 14 15  2  0  0  0
  9 16  2  0  0  0
 16 17  1  0  0  0
  5 18  1  0  0  0
 18 19  1  0  0  0
M  END
>  <Entry>
540

>  <title>
7-278

>  <rigid docking scores>
-16.9736

>  <InChIKey>
ONVWTZGAXAPJHE-UHFFFAOYSA-N

$$$$
atoms 22 bonds 24
dotmatics
mol io
 22 24  0  0  0  0  0  0  0  0999 V2000
    7.8823    0.4172    0.0000 C   0  0  0  0  0  0  0  0  0  0  0  0
    7.1665    0.0031    0.0000 N   0  0  0  0  0  0  0  0  0  0  0  0
    7.1672   -0.8239    0.0000 C   0  0  0  0  0  0  0  0  0  0  0  0
    6.4514   -1.2380    0.0000 C   0  0  0  0  0  0  0  0  0  0  0  0
    5.7348   -0.8251    0.0000 C   0  0  0  0  0  0  0  0  0  0  0  0
    5.7341    0.0019    0.0000 C   0  0  0  0  0  0  0  0  0  0  0  0
    5.0175    0.4147    0.0000 N   0  0  0  0  0  0  0  0  0  0  0  0
    4.3017    0.0006    0.0000 C   0  0  0  0  0  0  0  0  0  0  0  0
    4.3024   -0.8264    0.0000 O   0  0  0  0  0  0  0  0  0  0  0  0
    3.5851    0.4135    0.0000 C   0  0  0  0  0  0  0  0  0  0  0  0
    2.8693   -0.0006    0.0000 N   0  0  0  0  0  0  0  0  0  0  0  0
    2.8693   -0.8289    0.0000 C   0  0  0  0  0  0  0  0  0  0  0  0
    2.1534   -1.2430    0.0000 C   0  0  0  0  0  0  0  0  0  0  0  0
    1.4317   -0.8289    0.0000 C   0  0  0  0  0  0  0  0  0  0  0  0
    0.7158   -1.2430    0.0000 C   0  0  0  0  0  0  0  0  0  0  0  0
    0.0000   -0.8289    0.0000 C   0  0  0  0  0  0  0  0  0  0  0  0
    0.0000   -0.0006    0.0000 C   0  0  0  0  0  0  0  0  0  0  0  0
    0.7158    0.4135    0.0000 C   0  0  0  0  0  0  0  0  0  0  0  0
    1.4317   -0.0006    0.0000 C   0  0  0  0  0  0  0  0  0  0  0  0
    2.1534    0.4135    0.0000 C   0  0  0  0  0  0  0  0  0  0  0  0
    6.4499    0.4160    0.0000 C   0  0  0  0  0  0  0  0  0  0  0  0
    6.4492    1.2430    0.0000 O   0  0  0  0  0  0  0  0  0  0  0  0
  1  2  1  0  0  0
  2 21  1  0  0  0
  2  3  1  0  0  0
  3  4  2  0  0  0
  4  5  1  0  0  0
  5  6  2  0  0  0
  6  7  1  0  0  0
  7  8  1  0  0  0
  8  9  2  0  0  0
  8 10  1  0  0  0
 10 11  1  0  0  0
 11 20  1  0  0  0
 11 12  1  0  0  0
 12 13  1  0  0  0
 13 14  1  0  0  0
 14 19  1  0  0  0
 14 15  2  0  0  0
 15 16  1  0  0  0
 16 17  2  0  0  0
 17 18  1  0  0  0
 18 19  2  0  0  0
 19 20  1  0  0  0
  6 21  1  0  0  0
 21 22  2  0  0  0
M  END
>  <Entry>
541

>  <title>
7-365

>  <rigid docking scores>
-19.6692

>  <InChIKey>
WRTPVDMUDHTWBK-UHFFFAOYSA-N

$$$$
atoms 20 bonds 22
dotmatics
mol io
 20 22  0  0  0  0  0  0  0  0999 V2000
    7.9739   -0.4141    0.0000 C   0  0  0  0  0  0  0  0  0  0  0  0
    7.1469   -0.4141    0.0000 N   0  0  0  0  0  0  0  0  0  0  0  0
    6.7334   -1.1303    0.0000 C   0  0  0  0  0  0  0  0  0  0  0  0
    5.9064   -1.1303    0.0000 C   0  0  0  0  0  0  0  0  0  0  0  0
    5.4929   -0.4141    0.0000 C   0  0  0  0  0  0  0  0  0  0  0  0
    4.6659   -0.4141    0.0000 C   0  0  0  0  0  0  0  0  0  0  0  0
    4.2524   -1.1303    0.0000 O   0  0  0  0  0  0  0  0  0  0  0  0
    4.2524    0.3021    0.0000 N   0  0  0  0  0  0  0  0  0  0  0  0
    3.4254    0.3021    0.0000 C   0  0  0  0  0  0  0  0  0  0  0  0
    2.9344   -0.3664    0.0000 N   0  0  0  0  0  0  0  0  0  0  0  0
    2.1475   -0.1120    0.0000 C   0  0  0  0  0  0  0  0  0  0  0  0
    1.4317   -0.5262    0.0000 C   0  0  0  0  0  0  0  0  0  0  0  0
    0.7158   -0.1120    0.0000 C   0  0  0  0  0  0  0  0  0  0  0  0
    0.7158    0.7162    0.0000 C   0  0  0  0  0  0  0  0  0  0  0  0
    0.0000    1.1303    0.0000 F   0  0  0  0  0  0  0  0  0  0  0  0
    1.4317    1.1303    0.0000 C   0  0  0  0  0  0  0  0  0  0  0  0
    2.1475    0.7162    0.0000 C   0  0  0  0  0  0  0  0  0  0  0  0
    2.9344    0.9706    0.0000 S   0  0  0  0  0  0  0  0  0  0  0  0
    5.9064    0.3021    0.0000 C   0  0  0  0  0  0  0  0  0  0  0  0
    6.7334    0.3021    0.0000 C   0  0  0  0  0  0  0  0  0  0  0  0
  1  2  1  0  0  0
  2 20  1  0  0  0
  2  3  1  0  0  0
  3  4  1  0  0  0
  4  5  1  0  0  0
  5  6  1  0  0  0
  6  7  2  0  0  0
  6  8  1  0  0  0
  8  9  1  0  0  0
  9 18  1  0  0  0
  9 10  2  0  0  0
 10 11  1  0  0  0
 11 17  1  0  0  0
 11 12  2  0  0  0
 12 13  1  0  0  0
 13 14  2  0  0  0
 14 15  1  0  0  0
 14 16  1  0  0  0
 16 17  2  0  0  0
 17 18  1  0  0  0
  5 19  1  0  0  0
 19 20  1  0  0  0
M  END
>  <Entry>
542

>  <title>
7-726

>  <rigid docking scores>
-17.1784

>  <InChIKey>
YZQMMBVEBDJYKF-UHFFFAOYSA-N

$$$$
atoms 19 bonds 21
dotmatics
mol io
 19 21  0  0  0  0  0  0  0  0999 V2000
    0.0000   -1.4501    0.0000 C   0  0  0  0  0  0  0  0  0  0  0  0
    0.7158   -1.0359    0.0000 N   0  0  0  0  0  0  0  0  0  0  0  0
    0.7151   -0.2089    0.0000 C   0  0  0  0  0  0  0  0  0  0  0  0
    1.4310    0.2052    0.0000 C   0  0  0  0  0  0  0  0  0  0  0  0
    2.1475   -0.2077    0.0000 C   0  0  0  0  0  0  0  0  0  0  0  0
    2.8634    0.2064    0.0000 N   0  0  0  0  0  0  0  0  0  0  0  0
    3.5799   -0.2064    0.0000 C   0  0  0  0  0  0  0  0  0  0  0  0
    3.5807   -1.0334    0.0000 O   0  0  0  0  0  0  0  0  0  0  0  0
    4.2958    0.2077    0.0000 C   0  0  0  0  0  0  0  0  0  0  0  0
    4.2958    1.0359    0.0000 C   0  0  0  0  0  0  0  0  0  0  0  0
    5.0116    1.4501    0.0000 C   0  0  0  0  0  0  0  0  0  0  0  0
    5.7275    1.0359    0.0000 C   0  0  0  0  0  0  0  0  0  0  0  0
    6.5143    1.2903    0.0000 N   0  0  0  0  0  0  0  0  0  0  0  0
    7.0053    0.6218    0.0000 C   0  0  0  0  0  0  0  0  0  0  0  0
    6.5143   -0.0467    0.0000 C   0  0  0  0  0  0  0  0  0  0  0  0
    5.7275    0.2077    0.0000 N   0  0  0  0  0  0  0  0  0  0  0  0
    5.0116   -0.2064    0.0000 C   0  0  0  0  0  0  0  0  0  0  0  0
    2.1482   -1.0347    0.0000 C   0  0  0  0  0  0  0  0  0  0  0  0
    1.4324   -1.4488    0.0000 C   0  0  0  0  0  0  0  0  0  0  0  0
  1  2  1  0  0  0
  2 19  1  0  0  0
  2  3  1  0  0  0
  3  4  1  0  0  0
  4  5  1  0  0  0
  5  6  1  0  0  0
  6  7  1  0  0  0
  7  8  2  0  0  0
  7  9  1  0  0  0
  9 17  2  0  0  0
  9 10  1  0  0  0
 10 11  2  0  0  0
 11 12  1  0  0  0
 12 16  1  0  0  0
 12 13  2  0  0  0
 13 14  1  0  0  0
 14 15  2  0  0  0
 15 16  1  0  0  0
 16 17  1  0  0  0
  5 18  1  0  0  0
 18 19  1  0  0  0
M  END
>  <Entry>
543

>  <title>
7-777

>  <rigid docking scores>
-19.0217

>  <InChIKey>
WCMSBROTLSXMDN-UHFFFAOYSA-N

>  <Pubchem>
110475116

>  <Mcule>
MCULE-1035503212

$$$$
atoms 23 bonds 25
dotmatics
mol io
 23 25  0  0  0  0  0  0  0  0999 V2000
   -1.7988    3.3022    0.0000 C   0  0  0  0  0  0  0  0  0  0  0  0
   -1.3853    2.5860    0.0000 C   0  0  0  0  0  0  0  0  0  0  0  0
   -0.5583    2.5860    0.0000 C   0  0  0  0  0  0  0  0  0  0  0  0
   -0.0722    3.2550    0.0000 N   0  0  0  0  0  0  0  0  0  0  0  0
    0.7143    2.9995    0.0000 C   0  0  0  0  0  0  0  0  0  0  0  0
    1.3834    3.4856    0.0000 C   0  0  0  0  0  0  0  0  0  0  0  0
    1.2969    4.3081    0.0000 C   0  0  0  0  0  0  0  0  0  0  0  0
    1.9660    4.7942    0.0000 C   0  0  0  0  0  0  0  0  0  0  0  0
    2.7215    4.4578    0.0000 C   0  0  0  0  0  0  0  0  0  0  0  0
    2.8080    3.6353    0.0000 C   0  0  0  0  0  0  0  0  0  0  0  0
    3.5635    3.2989    0.0000 O   0  0  0  0  0  0  0  0  0  0  0  0
    2.1389    3.1492    0.0000 C   0  0  0  0  0  0  0  0  0  0  0  0
    0.7143    2.1725    0.0000 O   0  0  0  0  0  0  0  0  0  0  0  0
   -0.0722    1.9169    0.0000 C   0  0  0  0  0  0  0  0  0  0  0  0
   -0.3277    1.1304    0.0000 C   0  0  0  0  0  0  0  0  0  0  0  0
    0.2256    0.5158    0.0000 O   0  0  0  0  0  0  0  0  0  0  0  0
   -1.1367    0.9585    0.0000 N   0  0  0  0  0  0  0  0  0  0  0  0
   -1.3922    0.1719    0.0000 C   0  0  0  0  0  0  0  0  0  0  0  0
   -2.2012    0.0000    0.0000 C   0  0  0  0  0  0  0  0  0  0  0  0
   -2.7545    0.6146    0.0000 N   0  0  0  0  0  0  0  0  0  0  0  0
   -3.5635    0.4426    0.0000 C   0  0  0  0  0  0  0  0  0  0  0  0
   -2.4990    1.4011    0.0000 C   0  0  0  0  0  0  0  0  0  0  0  0
   -1.6900    1.5730    0.0000 C   0  0  0  0  0  0  0  0  0  0  0  0
  1  2  1  0  0  0
  2  3  1  0  0  0
  3 14  2  0  0  0
  3  4  1  0  0  0
  4  5  2  0  0  0
  5  6  1  0  0  0
  6 12  1  0  0  0
  6  7  2  0  0  0
  7  8  1  0  0  0
  8  9  2  0  0  0
  9 10  1  0  0  0
 10 11  1  0  0  0
 10 12  2  0  0  0
  5 13  1  0  0  0
 13 14  1  0  0  0
 14 15  1  0  0  0
 15 16  2  0  0  0
 15 17  1  0  0  0
 17 23  1  0  0  0
 17 18  1  0  0  0
 18 19  1  0  0  0
 19 20  1  0  0  0
 20 21  1  0  0  0
 20 22  1  0  0  0
 22 23  1  0  0  0
M  END
>  <Entry>
544

>  <title>
7-823

>  <rigid docking scores>
-16.7172

>  <InChIKey>
AOGAYTCAMUFPSD-UHFFFAOYSA-N

$$$$
atoms 21 bonds 23
dotmatics
mol io
 21 23  0  0  0  0  0  0  0  0999 V2000
    4.5485    2.3936    0.0000 C   0  0  0  0  0  0  0  0  0  0  0  0
    4.5485    1.5666    0.0000 N   0  0  0  0  0  0  0  0  0  0  0  0
    5.2936    1.2078    0.0000 C   0  0  0  0  0  0  0  0  0  0  0  0
    5.4776    0.4015    0.0000 C   0  0  0  0  0  0  0  0  0  0  0  0
    4.9620   -0.2450    0.0000 C   0  0  0  0  0  0  0  0  0  0  0  0
    5.3755   -0.9612    0.0000 C   0  0  0  0  0  0  0  0  0  0  0  0
    4.9620   -1.6774    0.0000 C   0  0  0  0  0  0  0  0  0  0  0  0
    4.1350   -1.6774    0.0000 C   0  0  0  0  0  0  0  0  0  0  0  0
    3.7215   -0.9612    0.0000 C   0  0  0  0  0  0  0  0  0  0  0  0
    2.8945   -0.9612    0.0000 N   0  0  0  0  0  0  0  0  0  0  0  0
    2.4810   -1.6774    0.0000 C   0  0  0  0  0  0  0  0  0  0  0  0
    2.8945   -2.3936    0.0000 O   0  0  0  0  0  0  0  0  0  0  0  0
    1.6540   -1.6774    0.0000 C   0  0  0  0  0  0  0  0  0  0  0  0
    1.2405   -0.9612    0.0000 C   0  0  0  0  0  0  0  0  0  0  0  0
    0.4135   -0.9612    0.0000 C   0  0  0  0  0  0  0  0  0  0  0  0
    0.0000   -1.6774    0.0000 N   0  0  0  0  0  0  0  0  0  0  0  0
    0.4135   -2.3936    0.0000 C   0  0  0  0  0  0  0  0  0  0  0  0
    1.2405   -2.3936    0.0000 C   0  0  0  0  0  0  0  0  0  0  0  0
    4.1350   -0.2450    0.0000 C   0  0  0  0  0  0  0  0  0  0  0  0
    3.6194    0.4015    0.0000 C   0  0  0  0  0  0  0  0  0  0  0  0
    3.8034    1.2078    0.0000 C   0  0  0  0  0  0  0  0  0  0  0  0
  1  2  1  0  0  0
  2 21  1  0  0  0
  2  3  1  0  0  0
  3  4  1  0  0  0
  4  5  1  0  0  0
  5 19  1  0  0  0
  5  6  2  0  0  0
  6  7  1  0  0  0
  7  8  2  0  0  0
  8  9  1  0  0  0
  9 10  1  0  0  0
 10 11  1  0  0  0
 11 12  2  0  0  0
 11 13  1  0  0  0
 13 18  1  0  0  0
 13 14  2  0  0  0
 14 15  1  0  0  0
 15 16  2  0  0  0
 16 17  1  0  0  0
 17 18  2  0  0  0
  9 19  2  0  0  0
 19 20  1  0  0  0
 20 21  1  0  0  0
M  END
>  <Entry>
545

>  <title>
7-829

>  <rigid docking scores>
-17.0272

>  <InChIKey>
UAPHTSAYCDSBEX-UHFFFAOYSA-N

$$$$
atoms 23 bonds 25
dotmatics
mol io
 23 25  0  0  0  0  0  0  0  0999 V2000
    5.6618   -0.1423    0.0000 C   0  0  0  0  0  0  0  0  0  0  0  0
    4.9456   -0.5558    0.0000 C   0  0  0  0  0  0  0  0  0  0  0  0
    4.9456   -1.3828    0.0000 N   0  0  0  0  0  0  0  0  0  0  0  0
    5.6146   -1.8689    0.0000 C   0  0  0  0  0  0  0  0  0  0  0  0
    5.3591   -2.6554    0.0000 C   0  0  0  0  0  0  0  0  0  0  0  0
    4.5321   -2.6554    0.0000 C   0  0  0  0  0  0  0  0  0  0  0  0
    4.2765   -1.8689    0.0000 C   0  0  0  0  0  0  0  0  0  0  0  0
    3.4900   -1.6133    0.0000 C   0  0  0  0  0  0  0  0  0  0  0  0
    2.8754   -2.1667    0.0000 O   0  0  0  0  0  0  0  0  0  0  0  0
    3.3180   -0.8044    0.0000 N   0  0  0  0  0  0  0  0  0  0  0  0
    2.5315   -0.5488    0.0000 C   0  0  0  0  0  0  0  0  0  0  0  0
    1.9169   -1.1022    0.0000 C   0  0  0  0  0  0  0  0  0  0  0  0
    1.1304   -0.8466    0.0000 C   0  0  0  0  0  0  0  0  0  0  0  0
    0.9585   -0.0377    0.0000 C   0  0  0  0  0  0  0  0  0  0  0  0
    0.1719    0.2179    0.0000 O   0  0  0  0  0  0  0  0  0  0  0  0
    0.0000    1.0268    0.0000 C   0  0  0  0  0  0  0  0  0  0  0  0
    1.5730    0.5157    0.0000 C   0  0  0  0  0  0  0  0  0  0  0  0
    1.4011    1.3246    0.0000 C   0  0  0  0  0  0  0  0  0  0  0  0
    0.6456    1.6610    0.0000 C   0  0  0  0  0  0  0  0  0  0  0  0
    0.7320    2.4834    0.0000 N   0  0  0  0  0  0  0  0  0  0  0  0
    1.5410    2.6554    0.0000 C   0  0  0  0  0  0  0  0  0  0  0  0
    1.9545    1.9392    0.0000 O   0  0  0  0  0  0  0  0  0  0  0  0
    2.3596    0.2601    0.0000 C   0  0  0  0  0  0  0  0  0  0  0  0
  1  2  1  0  0  0
  2  3  1  0  0  0
  3  7  1  0  0  0
  3  4  1  0  0  0
  4  5  1  0  0  0
  5  6  1  0  0  0
  6  7  1  0  0  0
  7  8  1  0  0  0
  8  9  2  0  0  0
  8 10  1  0  0  0
 10 11  1  0  0  0
 11 23  1  0  0  0
 11 12  2  0  0  0
 12 13  1  0  0  0
 13 14  2  0  0  0
 14 15  1  0  0  0
 15 16  1  0  0  0
 14 17  1  0  0  0
 17 18  1  0  0  0
 18 22  1  0  0  0
 18 19  2  0  0  0
 19 20  1  0  0  0
 20 21  2  0  0  0
 21 22  1  0  0  0
 17 23  2  0  0  0
M  END
>  <Entry>
546

>  <title>
7-891

>  <rigid docking scores>
-16.582

>  <InChIKey>
AYLLVKALJLYIJM-UHFFFAOYSA-N

$$$$
atoms 24 bonds 26
dotmatics
mol io
 24 26  0  0  0  0  0  0  0  0999 V2000
    3.7123   -2.3772    0.0000 C   0  0  0  0  0  0  0  0  0  0  0  0
    2.9248   -2.6296    0.0000 S   0  0  0  0  0  0  0  0  0  0  0  0
    3.1772   -3.4172    0.0000 O   0  0  0  0  0  0  0  0  0  0  0  0
    2.1372   -2.8821    0.0000 O   0  0  0  0  0  0  0  0  0  0  0  0
    2.6724   -1.8421    0.0000 N   0  0  0  0  0  0  0  0  0  0  0  0
    1.8641   -1.6669    0.0000 C   0  0  0  0  0  0  0  0  0  0  0  0
    1.3083   -2.2793    0.0000 C   0  0  0  0  0  0  0  0  0  0  0  0
    0.5001   -2.1041    0.0000 C   0  0  0  0  0  0  0  0  0  0  0  0
    0.2477   -1.3166    0.0000 C   0  0  0  0  0  0  0  0  0  0  0  0
    0.8035   -0.7042    0.0000 C   0  0  0  0  0  0  0  0  0  0  0  0
    1.6117   -0.8794    0.0000 C   0  0  0  0  0  0  0  0  0  0  0  0
    2.1675   -0.2670    0.0000 C   0  0  0  0  0  0  0  0  0  0  0  0
    1.9151    0.5205    0.0000 N   0  0  0  0  0  0  0  0  0  0  0  0
    2.4709    1.1329    0.0000 C   0  0  0  0  0  0  0  0  0  0  0  0
    3.2792    0.9577    0.0000 O   0  0  0  0  0  0  0  0  0  0  0  0
    2.2185    1.9204    0.0000 C   0  0  0  0  0  0  0  0  0  0  0  0
    2.7096    2.5889    0.0000 C   0  0  0  0  0  0  0  0  0  0  0  0
    2.2185    3.2574    0.0000 O   0  0  0  0  0  0  0  0  0  0  0  0
    1.4317    3.0031    0.0000 C   0  0  0  0  0  0  0  0  0  0  0  0
    0.7158    3.4172    0.0000 C   0  0  0  0  0  0  0  0  0  0  0  0
    0.0000    3.0031    0.0000 C   0  0  0  0  0  0  0  0  0  0  0  0
    0.0000    2.1748    0.0000 C   0  0  0  0  0  0  0  0  0  0  0  0
    0.7158    1.7607    0.0000 C   0  0  0  0  0  0  0  0  0  0  0  0
    1.4317    2.1748    0.0000 C   0  0  0  0  0  0  0  0  0  0  0  0
  1  2  1  0  0  0
  2  3  2  0  0  0
  2  4  2  0  0  0
  2  5  1  0  0  0
  5  6  1  0  0  0
  6 11  1  0  0  0
  6  7  2  0  0  0
  7  8  1  0  0  0
  8  9  2  0  0  0
  9 10  1  0  0  0
 10 11  2  0  0  0
 11 12  1  0  0  0
 12 13  1  0  0  0
 13 14  1  0  0  0
 14 15  2  0  0  0
 14 16  1  0  0  0
 16 24  1  0  0  0
 16 17  1  0  0  0
 17 18  1  0  0  0
 18 19  1  0  0  0
 19 24  1  0  0  0
 19 20  2  0  0  0
 20 21  1  0  0  0
 21 22  2  0  0  0
 22 23  1  0  0  0
 23 24  2  0  0  0
M  END
>  <Entry>
547

>  <title>
7-943

>  <rigid docking scores>
-15.9918

>  <InChIKey>
ZOWREAJTNDXOEI-UHFFFAOYSA-N

$$$$
atoms 23 bonds 26
dotmatics
mol io
 23 26  0  0  0  0  0  0  0  0999 V2000
    5.3495   -3.2862    0.0000 C   0  0  0  0  0  0  0  0  0  0  0  0
    5.0971   -2.4986    0.0000 N   0  0  0  0  0  0  0  0  0  0  0  0
    4.2888   -2.3235    0.0000 C   0  0  0  0  0  0  0  0  0  0  0  0
    4.0364   -1.5359    0.0000 C   0  0  0  0  0  0  0  0  0  0  0  0
    4.5922   -0.9236    0.0000 N   0  0  0  0  0  0  0  0  0  0  0  0
    4.3398   -0.1360    0.0000 C   0  0  0  0  0  0  0  0  0  0  0  0
    3.5316    0.0392    0.0000 C   0  0  0  0  0  0  0  0  0  0  0  0
    2.9758   -0.5732    0.0000 C   0  0  0  0  0  0  0  0  0  0  0  0
    2.1675   -0.3980    0.0000 C   0  0  0  0  0  0  0  0  0  0  0  0
    1.9151    0.3895    0.0000 C   0  0  0  0  0  0  0  0  0  0  0  0
    2.4709    1.0019    0.0000 C   0  0  0  0  0  0  0  0  0  0  0  0
    2.2185    1.7894    0.0000 C   0  0  0  0  0  0  0  0  0  0  0  0
    2.7096    2.4579    0.0000 N   0  0  0  0  0  0  0  0  0  0  0  0
    2.2185    3.1264    0.0000 N   0  0  0  0  0  0  0  0  0  0  0  0
    1.4317    2.8720    0.0000 C   0  0  0  0  0  0  0  0  0  0  0  0
    0.7158    3.2862    0.0000 N   0  0  0  0  0  0  0  0  0  0  0  0
    0.0000    2.8720    0.0000 C   0  0  0  0  0  0  0  0  0  0  0  0
    0.0000    2.0438    0.0000 C   0  0  0  0  0  0  0  0  0  0  0  0
    0.7158    1.6297    0.0000 C   0  0  0  0  0  0  0  0  0  0  0  0
    1.4317    2.0438    0.0000 C   0  0  0  0  0  0  0  0  0  0  0  0
    3.2792    0.8267    0.0000 C   0  0  0  0  0  0  0  0  0  0  0  0
    5.4005   -1.0987    0.0000 C   0  0  0  0  0  0  0  0  0  0  0  0
    5.6529   -1.8863    0.0000 C   0  0  0  0  0  0  0  0  0  0  0  0
  1  2  1  0  0  0
  2 23  1  0  0  0
  2  3  1  0  0  0
  3  4  1  0  0  0
  4  5  1  0  0  0
  5  6  1  0  0  0
  6  7  1  0  0  0
  7 21  1  0  0  0
  7  8  2  0  0  0
  8  9  1  0  0  0
  9 10  2  0  0  0
 10 11  1  0  0  0
 11 12  1  0  0  0
 12 20  2  0  0  0
 12 13  1  0  0  0
 13 14  1  0  0  0
 14 15  2  0  0  0
 15 20  1  0  0  0
 15 16  1  0  0  0
 16 17  2  0  0  0
 17 18  1  0  0  0
 18 19  2  0  0  0
 19 20  1  0  0  0
 11 21  2  0  0  0
  5 22  1  0  0  0
 22 23  1  0  0  0
M  END
>  <Entry>
548

>  <title>
7-1450

>  <rigid docking scores>
-15.6329

>  <InChIKey>
OFIWTOZSQKHLBI-UHFFFAOYSA-N

$$$$
atoms 24 bonds 26
dotmatics
mol io
 24 26  0  0  0  0  0  0  0  0999 V2000
    5.3232    1.7443    0.0000 C   0  0  0  0  0  0  0  0  0  0  0  0
    4.6070    1.3308    0.0000 C   0  0  0  0  0  0  0  0  0  0  0  0
    4.6070    0.5038    0.0000 C   0  0  0  0  0  0  0  0  0  0  0  0
    5.2761    0.0177    0.0000 O   0  0  0  0  0  0  0  0  0  0  0  0
    5.0205   -0.7688    0.0000 C   0  0  0  0  0  0  0  0  0  0  0  0
    5.5066   -1.4378    0.0000 C   0  0  0  0  0  0  0  0  0  0  0  0
    6.3291   -1.3514    0.0000 C   0  0  0  0  0  0  0  0  0  0  0  0
    6.8152   -2.0204    0.0000 C   0  0  0  0  0  0  0  0  0  0  0  0
    6.4788   -2.7759    0.0000 C   0  0  0  0  0  0  0  0  0  0  0  0
    5.6563   -2.8624    0.0000 C   0  0  0  0  0  0  0  0  0  0  0  0
    5.1702   -2.1933    0.0000 C   0  0  0  0  0  0  0  0  0  0  0  0
    4.1935   -0.7688    0.0000 N   0  0  0  0  0  0  0  0  0  0  0  0
    3.9380    0.0177    0.0000 C   0  0  0  0  0  0  0  0  0  0  0  0
    3.1514    0.2733    0.0000 C   0  0  0  0  0  0  0  0  0  0  0  0
    2.9795    1.0822    0.0000 C   0  0  0  0  0  0  0  0  0  0  0  0
    3.5941    1.6356    0.0000 O   0  0  0  0  0  0  0  0  0  0  0  0
    2.1930    1.3378    0.0000 N   0  0  0  0  0  0  0  0  0  0  0  0
    1.6215    0.7400    0.0000 C   0  0  0  0  0  0  0  0  0  0  0  0
    0.7978    0.8142    0.0000 C   0  0  0  0  0  0  0  0  0  0  0  0
    0.3422    1.5044    0.0000 C   0  0  0  0  0  0  0  0  0  0  0  0
    0.5978    2.2909    0.0000 N   0  0  0  0  0  0  0  0  0  0  0  0
    0.0000    2.8624    0.0000 C   0  0  0  0  0  0  0  0  0  0  0  0
    1.3720    2.5815    0.0000 C   0  0  0  0  0  0  0  0  0  0  0  0
    2.0820    2.1573    0.0000 C   0  0  0  0  0  0  0  0  0  0  0  0
  1  2  1  0  0  0
  2  3  1  0  0  0
  3 13  2  0  0  0
  3  4  1  0  0  0
  4  5  1  0  0  0
  5  6  1  0  0  0
  6 11  1  0  0  0
  6  7  2  0  0  0
  7  8  1  0  0  0
  8  9  2  0  0  0
  9 10  1  0  0  0
 10 11  2  0  0  0
  5 12  2  0  0  0
 12 13  1  0  0  0
 13 14  1  0  0  0
 14 15  1  0  0  0
 15 16  2  0  0  0
 15 17  1  0  0  0
 17 24  1  0  0  0
 17 18  1  0  0  0
 18 19  1  0  0  0
 19 20  1  0  0  0
 20 21  1  0  0  0
 21 22  1  0  0  0
 21 23  1  0  0  0
 23 24  1  0  0  0
M  END
>  <Entry>
549

>  <title>
7-1524

>  <rigid docking scores>
-16.2871

>  <InChIKey>
QOWAAEDFJPUVCV-UHFFFAOYSA-N

$$$$
atoms 20 bonds 22
dotmatics
mol io
 20 22  0  0  0  0  0  0  0  0999 V2000
    6.2687    1.9397    0.0000 C   0  0  0  0  0  0  0  0  0  0  0  0
    6.2687    1.1127    0.0000 N   0  0  0  0  0  0  0  0  0  0  0  0
    6.9378    0.6266    0.0000 C   0  0  0  0  0  0  0  0  0  0  0  0
    6.6823   -0.1599    0.0000 C   0  0  0  0  0  0  0  0  0  0  0  0
    5.8552   -0.1599    0.0000 C   0  0  0  0  0  0  0  0  0  0  0  0
    5.3692   -0.8290    0.0000 C   0  0  0  0  0  0  0  0  0  0  0  0
    4.5467   -0.7425    0.0000 N   0  0  0  0  0  0  0  0  0  0  0  0
    4.0606   -1.4116    0.0000 C   0  0  0  0  0  0  0  0  0  0  0  0
    3.2381   -1.3251    0.0000 C   0  0  0  0  0  0  0  0  0  0  0  0
    2.6847   -1.9397    0.0000 C   0  0  0  0  0  0  0  0  0  0  0  0
    1.9292   -1.6033    0.0000 O   0  0  0  0  0  0  0  0  0  0  0  0
    2.0157   -0.7809    0.0000 C   0  0  0  0  0  0  0  0  0  0  0  0
    1.4011   -0.2275    0.0000 C   0  0  0  0  0  0  0  0  0  0  0  0
    0.6146   -0.4831    0.0000 C   0  0  0  0  0  0  0  0  0  0  0  0
    0.0000    0.0703    0.0000 C   0  0  0  0  0  0  0  0  0  0  0  0
    0.1719    0.8792    0.0000 C   0  0  0  0  0  0  0  0  0  0  0  0
    0.9585    1.1348    0.0000 C   0  0  0  0  0  0  0  0  0  0  0  0
    1.5730    0.5814    0.0000 C   0  0  0  0  0  0  0  0  0  0  0  0
    2.8246   -0.6089    0.0000 N   0  0  0  0  0  0  0  0  0  0  0  0
    5.5997    0.6266    0.0000 C   0  0  0  0  0  0  0  0  0  0  0  0
  1  2  1  0  0  0
  2 20  1  0  0  0
  2  3  1  0  0  0
  3  4  1  0  0  0
  4  5  1  0  0  0
  5  6  1  0  0  0
  6  7  1  0  0  0
  7  8  1  0  0  0
  8  9  1  0  0  0
  9 19  1  0  0  0
  9 10  2  0  0  0
 10 11  1  0  0  0
 11 12  1  0  0  0
 12 13  1  0  0  0
 13 18  1  0  0  0
 13 14  2  0  0  0
 14 15  1  0  0  0
 15 16  2  0  0  0
 16 17  1  0  0  0
 17 18  2  0  0  0
 12 19  2  0  0  0
  5 20  1  0  0  0
M  END
>  <Entry>
550

>  <title>
7-1528

>  <rigid docking scores>
-15.522

>  <InChIKey>
ZGAUWDZBSCLMJR-UHFFFAOYSA-N

$$$$
atoms 20 bonds 22
dotmatics
mol io
 20 22  0  0  0  0  0  0  0  0999 V2000
    5.2087    2.5647    0.0000 C   0  0  0  0  0  0  0  0  0  0  0  0
    4.4925    2.1512    0.0000 C   0  0  0  0  0  0  0  0  0  0  0  0
    4.4925    1.3242    0.0000 N   0  0  0  0  0  0  0  0  0  0  0  0
    5.2087    0.9107    0.0000 C   0  0  0  0  0  0  0  0  0  0  0  0
    5.2087    0.0837    0.0000 C   0  0  0  0  0  0  0  0  0  0  0  0
    4.4925   -0.3298    0.0000 N   0  0  0  0  0  0  0  0  0  0  0  0
    4.4925   -1.1568    0.0000 C   0  0  0  0  0  0  0  0  0  0  0  0
    3.7763   -1.5703    0.0000 C   0  0  0  0  0  0  0  0  0  0  0  0
    3.6898   -2.3928    0.0000 C   0  0  0  0  0  0  0  0  0  0  0  0
    2.8809   -2.5647    0.0000 S   0  0  0  0  0  0  0  0  0  0  0  0
    2.4674   -1.8485    0.0000 C   0  0  0  0  0  0  0  0  0  0  0  0
    1.6449   -1.7621    0.0000 C   0  0  0  0  0  0  0  0  0  0  0  0
    1.1588   -2.4311    0.0000 C   0  0  0  0  0  0  0  0  0  0  0  0
    0.3364   -2.3447    0.0000 C   0  0  0  0  0  0  0  0  0  0  0  0
    0.0000   -1.5892    0.0000 C   0  0  0  0  0  0  0  0  0  0  0  0
    0.4861   -0.9201    0.0000 C   0  0  0  0  0  0  0  0  0  0  0  0
    1.3086   -1.0066    0.0000 C   0  0  0  0  0  0  0  0  0  0  0  0
    3.0208   -1.2339    0.0000 N   0  0  0  0  0  0  0  0  0  0  0  0
    3.7763    0.0837    0.0000 C   0  0  0  0  0  0  0  0  0  0  0  0
    3.7763    0.9107    0.0000 C   0  0  0  0  0  0  0  0  0  0  0  0
  1  2  1  0  0  0
  2  3  1  0  0  0
  3 20  1  0  0  0
  3  4  1  0  0  0
  4  5  1  0  0  0
  5  6  1  0  0  0
  6  7  1  0  0  0
  7  8  1  0  0  0
  8 18  1  0  0  0
  8  9  2  0  0  0
  9 10  1  0  0  0
 10 11  1  0  0  0
 11 12  1  0  0  0
 12 17  1  0  0  0
 12 13  2  0  0  0
 13 14  1  0  0  0
 14 15  2  0  0  0
 15 16  1  0  0  0
 16 17  2  0  0  0
 11 18  2  0  0  0
  6 19  1  0  0  0
 19 20  1  0  0  0
M  END
>  <Entry>
551

>  <title>
7-1532

>  <rigid docking scores>
-17.4123

>  <InChIKey>
YBZAOWXNMVXOPO-UHFFFAOYSA-N

>  <ZINC>
ZINC000019595411

>  <eMolecules>
2347245

>  <SureChEMBL Patents>
SCHEMBL22207432

>  <Pubchem>
6456181

>  <Mcule>
MCULE-5796503386

>  <MolPort>
MolPort-002-143-958

$$$$
atoms 23 bonds 25
dotmatics
mol io
 23 25  0  0  0  0  0  0  0  0999 V2000
    0.0374    3.1101    0.0000 C   0  0  0  0  0  0  0  0  0  0  0  0
    0.0315    2.2831    0.0000 C   0  0  0  0  0  0  0  0  0  0  0  0
    0.7447    1.8645    0.0000 C   0  0  0  0  0  0  0  0  0  0  0  0
    1.4638    2.2729    0.0000 O   0  0  0  0  0  0  0  0  0  0  0  0
    0.7388    1.0376    0.0000 N   0  0  0  0  0  0  0  0  0  0  0  0
    1.4520    0.6189    0.0000 C   0  0  0  0  0  0  0  0  0  0  0  0
    2.1712    1.0273    0.0000 C   0  0  0  0  0  0  0  0  0  0  0  0
    2.8844    0.6087    0.0000 C   0  0  0  0  0  0  0  0  0  0  0  0
    2.8785   -0.2183    0.0000 C   0  0  0  0  0  0  0  0  0  0  0  0
    2.1594   -0.6266    0.0000 C   0  0  0  0  0  0  0  0  0  0  0  0
    2.1534   -1.4536    0.0000 N   0  0  0  0  0  0  0  0  0  0  0  0
    2.8693   -1.8677    0.0000 C   0  0  0  0  0  0  0  0  0  0  0  0
    3.5851   -1.4536    0.0000 O   0  0  0  0  0  0  0  0  0  0  0  0
    2.8693   -2.6960    0.0000 C   0  0  0  0  0  0  0  0  0  0  0  0
    3.5851   -3.1101    0.0000 C   0  0  0  0  0  0  0  0  0  0  0  0
    2.1534   -3.1101    0.0000 N   0  0  0  0  0  0  0  0  0  0  0  0
    1.4317   -2.6960    0.0000 C   0  0  0  0  0  0  0  0  0  0  0  0
    0.7158   -3.1101    0.0000 C   0  0  0  0  0  0  0  0  0  0  0  0
    0.0000   -2.6960    0.0000 C   0  0  0  0  0  0  0  0  0  0  0  0
    0.0000   -1.8677    0.0000 C   0  0  0  0  0  0  0  0  0  0  0  0
    0.7158   -1.4536    0.0000 N   0  0  0  0  0  0  0  0  0  0  0  0
    1.4317   -1.8677    0.0000 C   0  0  0  0  0  0  0  0  0  0  0  0
    1.4461   -0.2080    0.0000 C   0  0  0  0  0  0  0  0  0  0  0  0
  1  2  1  0  0  0
  2  3  1  0  0  0
  3  4  2  0  0  0
  3  5  1  0  0  0
  5  6  1  0  0  0
  6 23  1  0  0  0
  6  7  2  0  0  0
  7  8  1  0  0  0
  8  9  2  0  0  0
  9 10  1  0  0  0
 10 11  1  0  0  0
 11 22  1  0  0  0
 11 12  1  0  0  0
 12 13  2  0  0  0
 12 14  1  0  0  0
 14 15  1  0  0  0
 14 16  2  0  0  0
 16 17  1  0  0  0
 17 22  1  0  0  0
 17 18  2  0  0  0
 18 19  1  0  0  0
 19 20  2  0  0  0
 20 21  1  0  0  0
 21 22  2  0  0  0
 10 23  2  0  0  0
M  END
>  <Entry>
552

>  <title>
7-2088

>  <rigid docking scores>
-17.9741

>  <InChIKey>
UCHHBCDQMVLEBA-UHFFFAOYSA-N

$$$$
atoms 21 bonds 23
dotmatics
mol io
 21 23  0  0  0  0  0  0  0  0999 V2000
    2.2082    2.3879    0.0000 C   0  0  0  0  0  0  0  0  0  0  0  0
    2.2082    1.5609    0.0000 N   0  0  0  0  0  0  0  0  0  0  0  0
    2.8772    1.0748    0.0000 C   0  0  0  0  0  0  0  0  0  0  0  0
    2.6217    0.2883    0.0000 C   0  0  0  0  0  0  0  0  0  0  0  0
    3.1078   -0.3808    0.0000 N   0  0  0  0  0  0  0  0  0  0  0  0
    3.9302   -0.2943    0.0000 C   0  0  0  0  0  0  0  0  0  0  0  0
    4.2666    0.4612    0.0000 O   0  0  0  0  0  0  0  0  0  0  0  0
    4.4163   -0.9634    0.0000 C   0  0  0  0  0  0  0  0  0  0  0  0
    5.2388   -0.8769    0.0000 C   0  0  0  0  0  0  0  0  0  0  0  0
    5.7249   -1.5460    0.0000 C   0  0  0  0  0  0  0  0  0  0  0  0
    5.3885   -2.3015    0.0000 C   0  0  0  0  0  0  0  0  0  0  0  0
    4.5661   -2.3879    0.0000 C   0  0  0  0  0  0  0  0  0  0  0  0
    4.0800   -1.7189    0.0000 C   0  0  0  0  0  0  0  0  0  0  0  0
    1.7947    0.2883    0.0000 C   0  0  0  0  0  0  0  0  0  0  0  0
    1.3086   -0.3808    0.0000 C   0  0  0  0  0  0  0  0  0  0  0  0
    0.4861   -0.2943    0.0000 C   0  0  0  0  0  0  0  0  0  0  0  0
    0.0000   -0.9634    0.0000 C   0  0  0  0  0  0  0  0  0  0  0  0
    0.3364   -1.7189    0.0000 C   0  0  0  0  0  0  0  0  0  0  0  0
    1.1588   -1.8053    0.0000 N   0  0  0  0  0  0  0  0  0  0  0  0
    1.6449   -1.1363    0.0000 C   0  0  0  0  0  0  0  0  0  0  0  0
    1.5391    1.0748    0.0000 N   0  0  0  0  0  0  0  0  0  0  0  0
  1  2  1  0  0  0
  2 21  1  0  0  0
  2  3  1  0  0  0
  3  4  2  0  0  0
  4  5  1  0  0  0
  5  6  1  0  0  0
  6  7  2  0  0  0
  6  8  1  0  0  0
  8 13  1  0  0  0
  8  9  2  0  0  0
  9 10  1  0  0  0
 10 11  2  0  0  0
 11 12  1  0  0  0
 12 13  2  0  0  0
  4 14  1  0  0  0
 14 15  1  0  0  0
 15 20  1  0  0  0
 15 16  2  0  0  0
 16 17  1  0  0  0
 17 18  2  0  0  0
 18 19  1  0  0  0
 19 20  2  0  0  0
 14 21  2  0  0  0
M  END
>  <Entry>
553

>  <title>
7-2136

>  <rigid docking scores>
-15.7352

>  <InChIKey>
CYEYTKJDSRMPNN-UHFFFAOYSA-N

$$$$
atoms 21 bonds 23
dotmatics
mol io
 21 23  0  0  0  0  0  0  0  0999 V2000
    4.2787    2.6966    0.0000 C   0  0  0  0  0  0  0  0  0  0  0  0
    3.5629    2.2825    0.0000 C   0  0  0  0  0  0  0  0  0  0  0  0
    3.5629    1.4543    0.0000 C   0  0  0  0  0  0  0  0  0  0  0  0
    2.8470    1.0401    0.0000 C   0  0  0  0  0  0  0  0  0  0  0  0
    2.8529    0.2132    0.0000 C   0  0  0  0  0  0  0  0  0  0  0  0
    3.5721   -0.1952    0.0000 O   0  0  0  0  0  0  0  0  0  0  0  0
    2.1397   -0.2055    0.0000 N   0  0  0  0  0  0  0  0  0  0  0  0
    2.1456   -1.0324    0.0000 C   0  0  0  0  0  0  0  0  0  0  0  0
    1.4324   -1.4510    0.0000 C   0  0  0  0  0  0  0  0  0  0  0  0
    1.4383   -2.2780    0.0000 C   0  0  0  0  0  0  0  0  0  0  0  0
    0.7250   -2.6966    0.0000 C   0  0  0  0  0  0  0  0  0  0  0  0
    0.0059   -2.2883    0.0000 C   0  0  0  0  0  0  0  0  0  0  0  0
    0.0000   -1.4613    0.0000 N   0  0  0  0  0  0  0  0  0  0  0  0
    0.7132   -1.0427    0.0000 C   0  0  0  0  0  0  0  0  0  0  0  0
    2.1253    1.4543    0.0000 C   0  0  0  0  0  0  0  0  0  0  0  0
    1.4094    1.0401    0.0000 C   0  0  0  0  0  0  0  0  0  0  0  0
    0.6936    1.4543    0.0000 C   0  0  0  0  0  0  0  0  0  0  0  0
    0.6936    2.2825    0.0000 C   0  0  0  0  0  0  0  0  0  0  0  0
    1.4094    2.6966    0.0000 C   0  0  0  0  0  0  0  0  0  0  0  0
    2.1253    2.2825    0.0000 C   0  0  0  0  0  0  0  0  0  0  0  0
    2.8470    2.6966    0.0000 N   0  0  0  0  0  0  0  0  0  0  0  0
  1  2  1  0  0  0
  2 21  1  0  0  0
  2  3  2  0  0  0
  3  4  1  0  0  0
  4  5  1  0  0  0
  5  6  2  0  0  0
  5  7  1  0  0  0
  7  8  1  0  0  0
  8  9  1  0  0  0
  9 14  1  0  0  0
  9 10  2  0  0  0
 10 11  1  0  0  0
 11 12  2  0  0  0
 12 13  1  0  0  0
 13 14  2  0  0  0
  4 15  2  0  0  0
 15 20  1  0  0  0
 15 16  1  0  0  0
 16 17  2  0  0  0
 17 18  1  0  0  0
 18 19  2  0  0  0
 19 20  1  0  0  0
 20 21  2  0  0  0
M  END
>  <Entry>
554

>  <title>
7-2206

>  <rigid docking scores>
-16.3731

>  <InChIKey>
BJRPPJPUUYLQSE-UHFFFAOYSA-N

>  <ZINC>
ZINC000000780347

>  <eMolecules>
1447267

>  <Pubchem>
1072686

>  <Mcule>
MCULE-3102063331

>  <MolPort>
MolPort-001-995-587

$$$$
atoms 23 bonds 25
dotmatics
mol io
 23 25  0  0  0  0  0  0  0  0999 V2000
    5.4781    2.9782    0.0000 C   0  0  0  0  0  0  0  0  0  0  0  0
    5.4781    2.1512    0.0000 C   0  0  0  0  0  0  0  0  0  0  0  0
    6.1943    1.7377    0.0000 C   0  0  0  0  0  0  0  0  0  0  0  0
    6.1943    0.9107    0.0000 C   0  0  0  0  0  0  0  0  0  0  0  0
    5.4781    0.4972    0.0000 C   0  0  0  0  0  0  0  0  0  0  0  0
    5.4781   -0.3298    0.0000 N   0  0  0  0  0  0  0  0  0  0  0  0
    4.7619   -0.7433    0.0000 C   0  0  0  0  0  0  0  0  0  0  0  0
    4.0457   -0.3298    0.0000 O   0  0  0  0  0  0  0  0  0  0  0  0
    4.7619   -1.5703    0.0000 C   0  0  0  0  0  0  0  0  0  0  0  0
    4.0457   -1.9838    0.0000 C   0  0  0  0  0  0  0  0  0  0  0  0
    3.9592   -2.8063    0.0000 C   0  0  0  0  0  0  0  0  0  0  0  0
    3.1503   -2.9782    0.0000 S   0  0  0  0  0  0  0  0  0  0  0  0
    2.7368   -2.2620    0.0000 C   0  0  0  0  0  0  0  0  0  0  0  0
    1.9143   -2.1756    0.0000 N   0  0  0  0  0  0  0  0  0  0  0  0
    1.5780   -1.4201    0.0000 C   0  0  0  0  0  0  0  0  0  0  0  0
    2.0641   -0.7510    0.0000 O   0  0  0  0  0  0  0  0  0  0  0  0
    0.7555   -1.3336    0.0000 C   0  0  0  0  0  0  0  0  0  0  0  0
    0.0000   -1.6700    0.0000 C   0  0  0  0  0  0  0  0  0  0  0  0
    0.0864   -0.8475    0.0000 C   0  0  0  0  0  0  0  0  0  0  0  0
    3.2902   -1.6474    0.0000 N   0  0  0  0  0  0  0  0  0  0  0  0
    4.7619    0.9107    0.0000 C   0  0  0  0  0  0  0  0  0  0  0  0
    4.7619    1.7377    0.0000 C   0  0  0  0  0  0  0  0  0  0  0  0
    4.0457    2.1512    0.0000 C   0  0  0  0  0  0  0  0  0  0  0  0
  1  2  1  0  0  0
  2 22  1  0  0  0
  2  3  2  0  0  0
  3  4  1  0  0  0
  4  5  2  0  0  0
  5  6  1  0  0  0
  6  7  1  0  0  0
  7  8  2  0  0  0
  7  9  1  0  0  0
  9 10  1  0  0  0
 10 20  1  0  0  0
 10 11  2  0  0  0
 11 12  1  0  0  0
 12 13  1  0  0  0
 13 14  1  0  0  0
 14 15  1  0  0  0
 15 16  2  0  0  0
 15 17  1  0  0  0
 17 19  1  0  0  0
 17 18  1  0  0  0
 18 19  1  0  0  0
 13 20  2  0  0  0
  5 21  1  0  0  0
 21 22  2  0  0  0
 22 23  1  0  0  0
M  END
>  <Entry>
555

>  <title>
7-2255

>  <rigid docking scores>
-15.4224

>  <InChIKey>
QSZBXDMRDPLWBI-UHFFFAOYSA-N

>  <ZINC>
ZINC000017052792

>  <eMolecules>
22724942

>  <Pubchem>
27510101

>  <Mcule>
MCULE-2735032154

>  <MolPort>
MolPort-003-105-674

$$$$
atoms 21 bonds 23
dotmatics
mol io
 21 23  0  0  0  0  0  0  0  0999 V2000
    5.7978    2.9433    0.0000 C   0  0  0  0  0  0  0  0  0  0  0  0
    5.7978    2.1163    0.0000 C   0  0  0  0  0  0  0  0  0  0  0  0
    6.4669    1.6302    0.0000 C   0  0  0  0  0  0  0  0  0  0  0  0
    6.2113    0.8437    0.0000 N   0  0  0  0  0  0  0  0  0  0  0  0
    5.3843    0.8437    0.0000 C   0  0  0  0  0  0  0  0  0  0  0  0
    4.8982    0.1746    0.0000 N   0  0  0  0  0  0  0  0  0  0  0  0
    4.0757    0.2611    0.0000 C   0  0  0  0  0  0  0  0  0  0  0  0
    3.7394    1.0166    0.0000 O   0  0  0  0  0  0  0  0  0  0  0  0
    3.5896   -0.4080    0.0000 N   0  0  0  0  0  0  0  0  0  0  0  0
    3.9260   -1.1635    0.0000 C   0  0  0  0  0  0  0  0  0  0  0  0
    3.4399   -1.8326    0.0000 C   0  0  0  0  0  0  0  0  0  0  0  0
    2.6174   -1.7461    0.0000 N   0  0  0  0  0  0  0  0  0  0  0  0
    2.1313   -2.4152    0.0000 C   0  0  0  0  0  0  0  0  0  0  0  0
    1.3089   -2.3287    0.0000 C   0  0  0  0  0  0  0  0  0  0  0  0
    0.7555   -2.9433    0.0000 C   0  0  0  0  0  0  0  0  0  0  0  0
    0.0000   -2.6069    0.0000 C   0  0  0  0  0  0  0  0  0  0  0  0
    0.0864   -1.7845    0.0000 C   0  0  0  0  0  0  0  0  0  0  0  0
    0.8954   -1.6125    0.0000 S   0  0  0  0  0  0  0  0  0  0  0  0
    2.2811   -0.9906    0.0000 C   0  0  0  0  0  0  0  0  0  0  0  0
    2.7672   -0.3215    0.0000 C   0  0  0  0  0  0  0  0  0  0  0  0
    5.1287    1.6302    0.0000 S   0  0  0  0  0  0  0  0  0  0  0  0
  1  2  1  0  0  0
  2 21  1  0  0  0
  2  3  2  0  0  0
  3  4  1  0  0  0
  4  5  2  0  0  0
  5  6  1  0  0  0
  6  7  1  0  0  0
  7  8  2  0  0  0
  7  9  1  0  0  0
  9 20  1  0  0  0
  9 10  1  0  0  0
 10 11  1  0  0  0
 11 12  1  0  0  0
 12 13  1  0  0  0
 13 14  1  0  0  0
 14 18  1  0  0  0
 14 15  2  0  0  0
 15 16  1  0  0  0
 16 17  2  0  0  0
 17 18  1  0  0  0
 12 19  1  0  0  0
 19 20  1  0  0  0
  5 21  1  0  0  0
M  END
>  <Entry>
556

>  <title>
7-2267

>  <rigid docking scores>
-16.4203

>  <InChIKey>
ARLRTCKWXBSKIP-UHFFFAOYSA-N

$$$$
atoms 23 bonds 26
dotmatics
mol io
 23 26  0  0  0  0  0  0  0  0999 V2000
    9.4611    0.4982    0.0000 C   0  0  0  0  0  0  0  0  0  0  0  0
    8.6341    0.4982    0.0000 N   0  0  0  0  0  0  0  0  0  0  0  0
    8.1430   -0.1703    0.0000 C   0  0  0  0  0  0  0  0  0  0  0  0
    7.3562    0.0841    0.0000 C   0  0  0  0  0  0  0  0  0  0  0  0
    7.3562    0.9123    0.0000 C   0  0  0  0  0  0  0  0  0  0  0  0
    8.1430    1.1667    0.0000 N   0  0  0  0  0  0  0  0  0  0  0  0
    6.6404    1.3265    0.0000 C   0  0  0  0  0  0  0  0  0  0  0  0
    5.9245    0.9123    0.0000 C   0  0  0  0  0  0  0  0  0  0  0  0
    5.9245    0.0841    0.0000 C   0  0  0  0  0  0  0  0  0  0  0  0
    5.2087   -0.3300    0.0000 N   0  0  0  0  0  0  0  0  0  0  0  0
    4.4921    0.0828    0.0000 C   0  0  0  0  0  0  0  0  0  0  0  0
    3.7763   -0.3313    0.0000 C   0  0  0  0  0  0  0  0  0  0  0  0
    3.6905   -1.1538    0.0000 N   0  0  0  0  0  0  0  0  0  0  0  0
    2.8818   -1.3265    0.0000 C   0  0  0  0  0  0  0  0  0  0  0  0
    2.4676   -0.6106    0.0000 C   0  0  0  0  0  0  0  0  0  0  0  0
    1.6451   -0.5249    0.0000 C   0  0  0  0  0  0  0  0  0  0  0  0
    1.1596   -1.1944    0.0000 C   0  0  0  0  0  0  0  0  0  0  0  0
    0.3370   -1.1086    0.0000 C   0  0  0  0  0  0  0  0  0  0  0  0
    0.0000   -0.3534    0.0000 C   0  0  0  0  0  0  0  0  0  0  0  0
    0.4855    0.3160    0.0000 C   0  0  0  0  0  0  0  0  0  0  0  0
    1.3081    0.2303    0.0000 C   0  0  0  0  0  0  0  0  0  0  0  0
    3.0205    0.0044    0.0000 O   0  0  0  0  0  0  0  0  0  0  0  0
    6.6404   -0.3300    0.0000 C   0  0  0  0  0  0  0  0  0  0  0  0
  1  2  1  0  0  0
  2  6  1  0  0  0
  2  3  1  0  0  0
  3  4  2  0  0  0
  4 23  1  0  0  0
  4  5  1  0  0  0
  5  6  2  0  0  0
  5  7  1  0  0  0
  7  8  1  0  0  0
  8  9  1  0  0  0
  9 10  1  0  0  0
 10 11  1  0  0  0
 11 12  1  0  0  0
 12 22  1  0  0  0
 12 13  2  0  0  0
 13 14  1  0  0  0
 14 15  2  0  0  0
 15 16  1  0  0  0
 16 21  1  0  0  0
 16 17  2  0  0  0
 17 18  1  0  0  0
 18 19  2  0  0  0
 19 20  1  0  0  0
 20 21  2  0  0  0
 15 22  1  0  0  0
  9 23  1  0  0  0
M  END
>  <Entry>
557

>  <title>
7-2627

>  <rigid docking scores>
-16.2021

>  <InChIKey>
SPVJAFKBHOXFAZ-UHFFFAOYSA-N

$$$$
atoms 22 bonds 24
dotmatics
mol io
 22 24  0  0  0  0  0  0  0  0999 V2000
   -3.5985    3.4575    0.0000 C   0  0  0  0  0  0  0  0  0  0  0  0
   -2.7715    3.4575    0.0000 N   0  0  0  0  0  0  0  0  0  0  0  0
   -2.3580    4.1737    0.0000 C   0  0  0  0  0  0  0  0  0  0  0  0
   -1.5310    4.1737    0.0000 C   0  0  0  0  0  0  0  0  0  0  0  0
   -1.1175    3.4575    0.0000 C   0  0  0  0  0  0  0  0  0  0  0  0
   -0.2905    3.4575    0.0000 C   0  0  0  0  0  0  0  0  0  0  0  0
    0.1230    4.1737    0.0000 O   0  0  0  0  0  0  0  0  0  0  0  0
    0.1230    2.7413    0.0000 N   0  0  0  0  0  0  0  0  0  0  0  0
    0.9500    2.7413    0.0000 C   0  0  0  0  0  0  0  0  0  0  0  0
    1.3635    3.4575    0.0000 C   0  0  0  0  0  0  0  0  0  0  0  0
    2.1905    3.4575    0.0000 C   0  0  0  0  0  0  0  0  0  0  0  0
    2.6040    4.1737    0.0000 Cl  0  0  0  0  0  0  0  0  0  0  0  0
    2.6040    2.7413    0.0000 C   0  0  0  0  0  0  0  0  0  0  0  0
    2.1905    2.0251    0.0000 C   0  0  0  0  0  0  0  0  0  0  0  0
    2.6040    1.3089    0.0000 N   0  0  0  0  0  0  0  0  0  0  0  0
    3.4265    1.2224    0.0000 C   0  0  0  0  0  0  0  0  0  0  0  0
    3.5985    0.4135    0.0000 N   0  0  0  0  0  0  0  0  0  0  0  0
    2.8823   -0.0000    0.0000 N   0  0  0  0  0  0  0  0  0  0  0  0
    2.2677    0.5534    0.0000 N   0  0  0  0  0  0  0  0  0  0  0  0
    1.3635    2.0251    0.0000 C   0  0  0  0  0  0  0  0  0  0  0  0
   -1.5310    2.7413    0.0000 C   0  0  0  0  0  0  0  0  0  0  0  0
   -2.3580    2.7413    0.0000 C   0  0  0  0  0  0  0  0  0  0  0  0
  1  2  1  0  0  0
  2 22  1  0  0  0
  2  3  1  0  0  0
  3  4  1  0  0  0
  4  5  1  0  0  0
  5  6  1  0  0  0
  6  7  2  0  0  0
  6  8  1  0  0  0
  8  9  1  0  0  0
  9 20  1  0  0  0
  9 10  2  0  0  0
 10 11  1  0  0  0
 11 12  1  0  0  0
 11 13  2  0  0  0
 13 14  1  0  0  0
 14 15  1  0  0  0
 15 19  1  0  0  0
 15 16  1  0  0  0
 16 17  2  0  0  0
 17 18  1  0  0  0
 18 19  2  0  0  0
 14 20  2  0  0  0
  5 21  1  0  0  0
 21 22  1  0  0  0
M  END
>  <Entry>
558

>  <title>
7-2761

>  <rigid docking scores>
-18.1304

>  <InChIKey>
IAFFKAWMFYEULR-UHFFFAOYSA-N

$$$$
atoms 20 bonds 22
dotmatics
mol io
 20 22  0  0  0  0  0  0  0  0999 V2000
    0.0000    1.4576    0.0000 C   0  0  0  0  0  0  0  0  0  0  0  0
    0.7867    1.7125    0.0000 C   0  0  0  0  0  0  0  0  0  0  0  0
    1.0430    2.4988    0.0000 C   0  0  0  0  0  0  0  0  0  0  0  0
    1.8700    2.4981    0.0000 S   0  0  0  0  0  0  0  0  0  0  0  0
    2.1249    1.7113    0.0000 C   0  0  0  0  0  0  0  0  0  0  0  0
    2.9112    1.4551    0.0000 O   0  0  0  0  0  0  0  0  0  0  0  0
    1.4554    1.2258    0.0000 N   0  0  0  0  0  0  0  0  0  0  0  0
    1.4547    0.3988    0.0000 C   0  0  0  0  0  0  0  0  0  0  0  0
    2.1705   -0.0153    0.0000 C   0  0  0  0  0  0  0  0  0  0  0  0
    2.8871    0.3976    0.0000 O   0  0  0  0  0  0  0  0  0  0  0  0
    2.1698   -0.8423    0.0000 N   0  0  0  0  0  0  0  0  0  0  0  0
    2.8856   -1.2564    0.0000 C   0  0  0  0  0  0  0  0  0  0  0  0
    2.8856   -2.0847    0.0000 C   0  0  0  0  0  0  0  0  0  0  0  0
    3.6015   -2.4988    0.0000 C   0  0  0  0  0  0  0  0  0  0  0  0
    4.3173   -2.0847    0.0000 C   0  0  0  0  0  0  0  0  0  0  0  0
    4.3173   -1.2564    0.0000 C   0  0  0  0  0  0  0  0  0  0  0  0
    3.6015   -0.8423    0.0000 C   0  0  0  0  0  0  0  0  0  0  0  0
    5.1041   -1.0020    0.0000 C   0  0  0  0  0  0  0  0  0  0  0  0
    5.5893   -1.6706    0.0000 C   0  0  0  0  0  0  0  0  0  0  0  0
    5.1041   -2.3391    0.0000 C   0  0  0  0  0  0  0  0  0  0  0  0
  1  2  1  0  0  0
  2  7  1  0  0  0
  2  3  2  0  0  0
  3  4  1  0  0  0
  4  5  1  0  0  0
  5  6  2  0  0  0
  5  7  1  0  0  0
  7  8  1  0  0  0
  8  9  1  0  0  0
  9 10  2  0  0  0
  9 11  1  0  0  0
 11 12  1  0  0  0
 12 17  1  0  0  0
 12 13  2  0  0  0
 13 14  1  0  0  0
 14 15  2  0  0  0
 15 20  1  0  0  0
 15 16  1  0  0  0
 16 17  2  0  0  0
 16 18  1  0  0  0
 18 19  1  0  0  0
 19 20  1  0  0  0
M  END
>  <Entry>
559

>  <title>
7-3097

>  <rigid docking scores>
-16.4135

>  <InChIKey>
KFYJNMKMJMHHBW-UHFFFAOYSA-N

>  <ZINC>
ZINC000005269191

>  <eMolecules>
3691285

>  <Pubchem>
4808412

>  <Mcule>
MCULE-4434916476

>  <MolPort>
MolPort-004-196-740

$$$$
atoms 24 bonds 26
dotmatics
mol io
 24 26  0  0  0  0  0  0  0  0999 V2000
    4.9707   -2.1468    0.0000 C   0  0  0  0  0  0  0  0  0  0  0  0
    4.1437   -2.1475    0.0000 C   0  0  0  0  0  0  0  0  0  0  0  0
    3.7309   -2.8641    0.0000 C   0  0  0  0  0  0  0  0  0  0  0  0
    2.9039   -2.8648    0.0000 C   0  0  0  0  0  0  0  0  0  0  0  0
    2.4897   -2.1490    0.0000 C   0  0  0  0  0  0  0  0  0  0  0  0
    2.9026   -1.4324    0.0000 C   0  0  0  0  0  0  0  0  0  0  0  0
    3.7296   -1.4317    0.0000 C   0  0  0  0  0  0  0  0  0  0  0  0
    4.1425   -0.7151    0.0000 N   0  0  0  0  0  0  0  0  0  0  0  0
    3.7284    0.0007    0.0000 C   0  0  0  0  0  0  0  0  0  0  0  0
    2.9014    0.0000    0.0000 O   0  0  0  0  0  0  0  0  0  0  0  0
    4.1412    0.7173    0.0000 C   0  0  0  0  0  0  0  0  0  0  0  0
    3.7271    1.4331    0.0000 N   0  0  0  0  0  0  0  0  0  0  0  0
    2.8989    1.4331    0.0000 N   0  0  0  0  0  0  0  0  0  0  0  0
    2.4847    2.1490    0.0000 C   0  0  0  0  0  0  0  0  0  0  0  0
    1.6565    2.1490    0.0000 C   0  0  0  0  0  0  0  0  0  0  0  0
    1.2424    1.4331    0.0000 C   0  0  0  0  0  0  0  0  0  0  0  0
    0.4141    1.4331    0.0000 C   0  0  0  0  0  0  0  0  0  0  0  0
    0.0000    2.1490    0.0000 C   0  0  0  0  0  0  0  0  0  0  0  0
    0.4141    2.8648    0.0000 C   0  0  0  0  0  0  0  0  0  0  0  0
    1.2424    2.8648    0.0000 C   0  0  0  0  0  0  0  0  0  0  0  0
    2.8989    2.8648    0.0000 C   0  0  0  0  0  0  0  0  0  0  0  0
    3.7271    2.8648    0.0000 C   0  0  0  0  0  0  0  0  0  0  0  0
    4.1412    2.1490    0.0000 C   0  0  0  0  0  0  0  0  0  0  0  0
    4.9682    2.1490    0.0000 O   0  0  0  0  0  0  0  0  0  0  0  0
  1  2  1  0  0  0
  2  7  1  0  0  0
  2  3  2  0  0  0
  3  4  1  0  0  0
  4  5  2  0  0  0
  5  6  1  0  0  0
  6  7  2  0  0  0
  7  8  1  0  0  0
  8  9  1  0  0  0
  9 10  2  0  0  0
  9 11  1  0  0  0
 11 12  1  0  0  0
 12 23  1  0  0  0
 12 13  1  0  0  0
 13 14  2  0  0  0
 14 15  1  0  0  0
 15 20  1  0  0  0
 15 16  2  0  0  0
 16 17  1  0  0  0
 17 18  2  0  0  0
 18 19  1  0  0  0
 19 20  2  0  0  0
 14 21  1  0  0  0
 21 22  2  0  0  0
 22 23  1  0  0  0
 23 24  2  0  0  0
M  END
>  <Entry>
560

>  <title>
7-3165

>  <rigid docking scores>
-16.4518

>  <InChIKey>
DHLOALYGDOWYPB-UHFFFAOYSA-N

>  <ZINC>
ZINC000005388171

>  <eMolecules>
35669438

>  <Pubchem>
7659622

>  <Mcule>
MCULE-9569804111

>  <MolPort>
MolPort-003-571-592

$$$$
atoms 22 bonds 25
dotmatics
mol io
 22 25  0  0  0  0  0  0  0  0999 V2000
    0.0000    1.5118    0.0000 C   0  0  0  0  0  0  0  0  0  0  0  0
    0.7158    1.9259    0.0000 C   0  0  0  0  0  0  0  0  0  0  0  0
    1.4324    1.5131    0.0000 C   0  0  0  0  0  0  0  0  0  0  0  0
    1.4331    0.6861    0.0000 C   0  0  0  0  0  0  0  0  0  0  0  0
    2.1497    0.2732    0.0000 C   0  0  0  0  0  0  0  0  0  0  0  0
    2.8655    0.6873    0.0000 N   0  0  0  0  0  0  0  0  0  0  0  0
    2.8655    1.5156    0.0000 C   0  0  0  0  0  0  0  0  0  0  0  0
    3.5814    1.9297    0.0000 C   0  0  0  0  0  0  0  0  0  0  0  0
    4.2972    1.5156    0.0000 C   0  0  0  0  0  0  0  0  0  0  0  0
    5.0841    1.7700    0.0000 N   0  0  0  0  0  0  0  0  0  0  0  0
    5.5751    1.1014    0.0000 N   0  0  0  0  0  0  0  0  0  0  0  0
    5.0841    0.4329    0.0000 C   0  0  0  0  0  0  0  0  0  0  0  0
    5.3365   -0.3546    0.0000 C   0  0  0  0  0  0  0  0  0  0  0  0
    6.1447   -0.5298    0.0000 C   0  0  0  0  0  0  0  0  0  0  0  0
    6.3971   -1.3173    0.0000 C   0  0  0  0  0  0  0  0  0  0  0  0
    5.8413   -1.9297    0.0000 C   0  0  0  0  0  0  0  0  0  0  0  0
    5.0331   -1.7545    0.0000 N   0  0  0  0  0  0  0  0  0  0  0  0
    4.7806   -0.9670    0.0000 C   0  0  0  0  0  0  0  0  0  0  0  0
    4.2972    0.6873    0.0000 C   0  0  0  0  0  0  0  0  0  0  0  0
    3.5814    0.2732    0.0000 C   0  0  0  0  0  0  0  0  0  0  0  0
    0.7173    0.2719    0.0000 N   0  0  0  0  0  0  0  0  0  0  0  0
    0.0007    0.6848    0.0000 C   0  0  0  0  0  0  0  0  0  0  0  0
  1 22  1  0  0  0
  1  2  2  0  0  0
  2  3  1  0  0  0
  3  4  2  0  0  0
  4  5  1  0  0  0
  5  6  1  0  0  0
  6 20  1  0  0  0
  6  7  1  0  0  0
  7  8  1  0  0  0
  8  9  1  0  0  0
  9 19  2  0  0  0
  9 10  1  0  0  0
 10 11  1  0  0  0
 11 12  2  0  0  0
 12 13  1  0  0  0
 13 18  1  0  0  0
 13 14  2  0  0  0
 14 15  1  0  0  0
 15 16  2  0  0  0
 16 17  1  0  0  0
 17 18  2  0  0  0
 12 19  1  0  0  0
 19 20  1  0  0  0
  4 21  1  0  0  0
 21 22  2  0  0  0
M  END
>  <Entry>
561

>  <title>
7-3392

>  <rigid docking scores>
-17.8659

>  <InChIKey>
QPQQZDCEQQQHEE-UHFFFAOYSA-N

$$$$
atoms 20 bonds 22
dotmatics
mol io
 20 22  0  0  0  0  0  0  0  0999 V2000
    4.3024   -0.4129    0.0000 O   0  0  0  0  0  0  0  0  0  0  0  0
    4.3017    0.4141    0.0000 C   0  0  0  0  0  0  0  0  0  0  0  0
    3.5851    0.8270    0.0000 C   0  0  0  0  0  0  0  0  0  0  0  0
    2.8693    0.4129    0.0000 N   0  0  0  0  0  0  0  0  0  0  0  0
    2.8693   -0.4154    0.0000 C   0  0  0  0  0  0  0  0  0  0  0  0
    2.1534   -0.8295    0.0000 C   0  0  0  0  0  0  0  0  0  0  0  0
    1.4317   -0.4154    0.0000 C   0  0  0  0  0  0  0  0  0  0  0  0
    0.7158   -0.8295    0.0000 C   0  0  0  0  0  0  0  0  0  0  0  0
    0.0000   -0.4154    0.0000 C   0  0  0  0  0  0  0  0  0  0  0  0
    0.0000    0.4129    0.0000 C   0  0  0  0  0  0  0  0  0  0  0  0
    0.7158    0.8270    0.0000 C   0  0  0  0  0  0  0  0  0  0  0  0
    1.4317    0.4129    0.0000 C   0  0  0  0  0  0  0  0  0  0  0  0
    2.1534    0.8270    0.0000 C   0  0  0  0  0  0  0  0  0  0  0  0
    5.0175    0.8282    0.0000 N   0  0  0  0  0  0  0  0  0  0  0  0
    5.7341    0.4154    0.0000 C   0  0  0  0  0  0  0  0  0  0  0  0
    6.4499    0.8295    0.0000 C   0  0  0  0  0  0  0  0  0  0  0  0
    7.1665    0.4166    0.0000 C   0  0  0  0  0  0  0  0  0  0  0  0
    7.1672   -0.4104    0.0000 C   0  0  0  0  0  0  0  0  0  0  0  0
    6.4514   -0.8245    0.0000 N   0  0  0  0  0  0  0  0  0  0  0  0
    5.7348   -0.4116    0.0000 C   0  0  0  0  0  0  0  0  0  0  0  0
  1  2  2  0  0  0
  2  3  1  0  0  0
  3  4  1  0  0  0
  4 13  1  0  0  0
  4  5  1  0  0  0
  5  6  1  0  0  0
  6  7  1  0  0  0
  7 12  1  0  0  0
  7  8  2  0  0  0
  8  9  1  0  0  0
  9 10  2  0  0  0
 10 11  1  0  0  0
 11 12  2  0  0  0
 12 13  1  0  0  0
  2 14  1  0  0  0
 14 15  1  0  0  0
 15 20  1  0  0  0
 15 16  2  0  0  0
 16 17  1  0  0  0
 17 18  2  0  0  0
 18 19  1  0  0  0
 19 20  2  0  0  0
M  END
>  <Entry>
562

>  <title>
7-3466

>  <rigid docking scores>
-18.4687

>  <InChIKey>
FSPNJPLBMILTES-UHFFFAOYSA-N

>  <Pubchem>
131702823

>  <MolPort>
MolPort-044-875-112

$$$$
atoms 21 bonds 24
dotmatics
mol io
 21 24  0  0  0  0  0  0  0  0999 V2000
    2.1479    1.2975    0.0000 O   0  0  0  0  0  0  0  0  0  0  0  0
    2.8641    0.8840    0.0000 C   0  0  0  0  0  0  0  0  0  0  0  0
    3.5803    1.2975    0.0000 N   0  0  0  0  0  0  0  0  0  0  0  0
    3.5803    2.1245    0.0000 C   0  0  0  0  0  0  0  0  0  0  0  0
    3.1668    2.8407    0.0000 C   0  0  0  0  0  0  0  0  0  0  0  0
    3.9938    2.8407    0.0000 C   0  0  0  0  0  0  0  0  0  0  0  0
    2.8641    0.0570    0.0000 C   0  0  0  0  0  0  0  0  0  0  0  0
    2.1482   -0.3572    0.0000 C   0  0  0  0  0  0  0  0  0  0  0  0
    2.1482   -1.1854    0.0000 C   0  0  0  0  0  0  0  0  0  0  0  0
    1.4324   -1.5995    0.0000 C   0  0  0  0  0  0  0  0  0  0  0  0
    1.4331   -2.4265    0.0000 C   0  0  0  0  0  0  0  0  0  0  0  0
    0.7173   -2.8407    0.0000 C   0  0  0  0  0  0  0  0  0  0  0  0
    0.0007   -2.4278    0.0000 C   0  0  0  0  0  0  0  0  0  0  0  0
    0.0000   -1.6008    0.0000 N   0  0  0  0  0  0  0  0  0  0  0  0
    0.7158   -1.1867    0.0000 C   0  0  0  0  0  0  0  0  0  0  0  0
    2.8641   -1.5995    0.0000 N   0  0  0  0  0  0  0  0  0  0  0  0
    3.5799   -1.1854    0.0000 C   0  0  0  0  0  0  0  0  0  0  0  0
    3.5799   -0.3572    0.0000 C   0  0  0  0  0  0  0  0  0  0  0  0
    4.3668   -0.1028    0.0000 C   0  0  0  0  0  0  0  0  0  0  0  0
    4.8519   -0.7713    0.0000 C   0  0  0  0  0  0  0  0  0  0  0  0
    4.3668   -1.4398    0.0000 C   0  0  0  0  0  0  0  0  0  0  0  0
  1  2  2  0  0  0
  2  3  1  0  0  0
  3  4  1  0  0  0
  4  6  1  0  0  0
  4  5  1  0  0  0
  5  6  1  0  0  0
  2  7  1  0  0  0
  7 18  1  0  0  0
  7  8  2  0  0  0
  8  9  1  0  0  0
  9 10  1  0  0  0
 10 15  1  0  0  0
 10 11  2  0  0  0
 11 12  1  0  0  0
 12 13  2  0  0  0
 13 14  1  0  0  0
 14 15  2  0  0  0
  9 16  2  0  0  0
 16 17  1  0  0  0
 17 21  1  0  0  0
 17 18  2  0  0  0
 18 19  1  0  0  0
 19 20  1  0  0  0
 20 21  1  0  0  0
M  END
>  <Entry>
563

>  <title>
7-3604

>  <rigid docking scores>
-16.8545

>  <InChIKey>
URMVYXXKZPKAKZ-UHFFFAOYSA-N

$$$$
atoms 18 bonds 20
dotmatics
mol io
 18 20  0  0  0  0  0  0  0  0999 V2000
    5.7864   -1.7993    0.0000 C   0  0  0  0  0  0  0  0  0  0  0  0
    5.7000   -0.9769    0.0000 N   0  0  0  0  0  0  0  0  0  0  0  0
    4.9445   -0.6405    0.0000 C   0  0  0  0  0  0  0  0  0  0  0  0
    4.2283   -1.0540    0.0000 C   0  0  0  0  0  0  0  0  0  0  0  0
    3.6137   -0.5006    0.0000 C   0  0  0  0  0  0  0  0  0  0  0  0
    3.9501    0.2549    0.0000 N   0  0  0  0  0  0  0  0  0  0  0  0
    3.5366    0.9711    0.0000 C   0  0  0  0  0  0  0  0  0  0  0  0
    3.9501    1.6873    0.0000 O   0  0  0  0  0  0  0  0  0  0  0  0
    2.7096    0.9711    0.0000 C   0  0  0  0  0  0  0  0  0  0  0  0
    2.2185    0.3026    0.0000 N   0  0  0  0  0  0  0  0  0  0  0  0
    1.4317    0.5570    0.0000 C   0  0  0  0  0  0  0  0  0  0  0  0
    0.7158    0.1428    0.0000 C   0  0  0  0  0  0  0  0  0  0  0  0
    0.0000    0.5570    0.0000 C   0  0  0  0  0  0  0  0  0  0  0  0
    0.0000    1.3852    0.0000 C   0  0  0  0  0  0  0  0  0  0  0  0
    0.7158    1.7993    0.0000 C   0  0  0  0  0  0  0  0  0  0  0  0
    1.4317    1.3852    0.0000 C   0  0  0  0  0  0  0  0  0  0  0  0
    2.2185    1.6396    0.0000 S   0  0  0  0  0  0  0  0  0  0  0  0
    4.7725    0.1684    0.0000 C   0  0  0  0  0  0  0  0  0  0  0  0
  1  2  1  0  0  0
  2  3  1  0  0  0
  3 18  1  0  0  0
  3  4  1  0  0  0
  4  5  1  0  0  0
  5  6  1  0  0  0
  6  7  1  0  0  0
  7  8  2  0  0  0
  7  9  1  0  0  0
  9 17  1  0  0  0
  9 10  2  0  0  0
 10 11  1  0  0  0
 11 16  1  0  0  0
 11 12  2  0  0  0
 12 13  1  0  0  0
 13 14  2  0  0  0
 14 15  1  0  0  0
 15 16  2  0  0  0
 16 17  1  0  0  0
  6 18  1  0  0  0
M  END
>  <Entry>
564

>  <title>
7-3824

>  <rigid docking scores>
-17.1611

>  <InChIKey>
QLQXSKFVZRGAJP-UHFFFAOYSA-N

$$$$
atoms 23 bonds 25
dotmatics
mol io
 23 25  0  0  0  0  0  0  0  0999 V2000
    7.8627   -2.1484    0.0000 C   0  0  0  0  0  0  0  0  0  0  0  0
    7.4492   -1.4322    0.0000 C   0  0  0  0  0  0  0  0  0  0  0  0
    6.6222   -1.4322    0.0000 C   0  0  0  0  0  0  0  0  0  0  0  0
    6.2087   -0.7160    0.0000 C   0  0  0  0  0  0  0  0  0  0  0  0
    6.6222    0.0002    0.0000 N   0  0  0  0  0  0  0  0  0  0  0  0
    6.2087    0.7164    0.0000 C   0  0  0  0  0  0  0  0  0  0  0  0
    6.6222    1.4326    0.0000 O   0  0  0  0  0  0  0  0  0  0  0  0
    5.3817    0.7164    0.0000 C   0  0  0  0  0  0  0  0  0  0  0  0
    4.9682    1.4326    0.0000 S   0  0  0  0  0  0  0  0  0  0  0  0
    4.1412    1.4326    0.0000 C   0  0  0  0  0  0  0  0  0  0  0  0
    3.7271    0.7167    0.0000 C   0  0  0  0  0  0  0  0  0  0  0  0
    2.8989    0.7167    0.0000 C   0  0  0  0  0  0  0  0  0  0  0  0
    2.4847    1.4326    0.0000 C   0  0  0  0  0  0  0  0  0  0  0  0
    1.6565    1.4326    0.0000 C   0  0  0  0  0  0  0  0  0  0  0  0
    1.2424    0.7167    0.0000 C   0  0  0  0  0  0  0  0  0  0  0  0
    0.4141    0.7167    0.0000 C   0  0  0  0  0  0  0  0  0  0  0  0
    0.0000    1.4326    0.0000 N   0  0  0  0  0  0  0  0  0  0  0  0
    0.4141    2.1484    0.0000 C   0  0  0  0  0  0  0  0  0  0  0  0
    1.2424    2.1484    0.0000 C   0  0  0  0  0  0  0  0  0  0  0  0
    2.8989    2.1484    0.0000 N   0  0  0  0  0  0  0  0  0  0  0  0
    3.7271    2.1484    0.0000 N   0  0  0  0  0  0  0  0  0  0  0  0
    7.4492    0.0002    0.0000 C   0  0  0  0  0  0  0  0  0  0  0  0
    7.8627   -0.7160    0.0000 C   0  0  0  0  0  0  0  0  0  0  0  0
  1  2  1  0  0  0
  2 23  1  0  0  0
  2  3  1  0  0  0
  3  4  1  0  0  0
  4  5  1  0  0  0
  5  6  1  0  0  0
  6  7  2  0  0  0
  6  8  1  0  0  0
  8  9  1  0  0  0
  9 10  1  0  0  0
 10 21  1  0  0  0
 10 11  2  0  0  0
 11 12  1  0  0  0
 12 13  2  0  0  0
 13 14  1  0  0  0
 14 19  1  0  0  0
 14 15  2  0  0  0
 15 16  1  0  0  0
 16 17  2  0  0  0
 17 18  1  0  0  0
 18 19  2  0  0  0
 13 20  1  0  0  0
 20 21  2  0  0  0
  5 22  1  0  0  0
 22 23  1  0  0  0
M  END
>  <Entry>
565

>  <title>
1-6549

>  <rigid docking scores>
-16.639

>  <InChIKey>
OIDYXIDJMMQGDJ-UHFFFAOYSA-N

>  <ZINC>
ZINC000004392011

>  <eMolecules>
16355192

>  <Pubchem>
7222479

>  <Mcule>
MCULE-9233236070

>  <MolPort>
MolPort-003-086-716

$$$$
atoms 21 bonds 23
dotmatics
mol io
 21 23  0  0  0  0  0  0  0  0999 V2000
   -2.1926    0.9718    0.0000 O   0  0  0  0  0  0  0  0  0  0  0  0
   -1.4764    1.3853    0.0000 S   0  0  0  0  0  0  0  0  0  0  0  0
   -0.7602    1.7988    0.0000 O   0  0  0  0  0  0  0  0  0  0  0  0
   -1.0629    0.6691    0.0000 N   0  0  0  0  0  0  0  0  0  0  0  0
   -0.2359    0.6691    0.0000 C   0  0  0  0  0  0  0  0  0  0  0  0
    0.2502    1.3381    0.0000 N   0  0  0  0  0  0  0  0  0  0  0  0
    1.0368    1.0826    0.0000 C   0  0  0  0  0  0  0  0  0  0  0  0
    1.7058    1.5687    0.0000 C   0  0  0  0  0  0  0  0  0  0  0  0
    1.6194    2.3911    0.0000 C   0  0  0  0  0  0  0  0  0  0  0  0
    2.2884    2.8772    0.0000 C   0  0  0  0  0  0  0  0  0  0  0  0
    3.0439    2.5409    0.0000 N   0  0  0  0  0  0  0  0  0  0  0  0
    3.1304    1.7184    0.0000 C   0  0  0  0  0  0  0  0  0  0  0  0
    2.4613    1.2323    0.0000 C   0  0  0  0  0  0  0  0  0  0  0  0
    1.0368    0.2556    0.0000 C   0  0  0  0  0  0  0  0  0  0  0  0
    0.2502   -0.0000    0.0000 S   0  0  0  0  0  0  0  0  0  0  0  0
   -1.8899    2.1015    0.0000 C   0  0  0  0  0  0  0  0  0  0  0  0
   -2.7169    2.1015    0.0000 C   0  0  0  0  0  0  0  0  0  0  0  0
   -3.1304    2.8177    0.0000 C   0  0  0  0  0  0  0  0  0  0  0  0
   -2.7169    3.5339    0.0000 C   0  0  0  0  0  0  0  0  0  0  0  0
   -1.8899    3.5339    0.0000 C   0  0  0  0  0  0  0  0  0  0  0  0
   -1.4764    2.8177    0.0000 C   0  0  0  0  0  0  0  0  0  0  0  0
  1  2  2  0  0  0
  2  3  2  0  0  0
  2  4  1  0  0  0
  4  5  1  0  0  0
  5 15  1  0  0  0
  5  6  2  0  0  0
  6  7  1  0  0  0
  7  8  1  0  0  0
  8 13  1  0  0  0
  8  9  2  0  0  0
  9 10  1  0  0  0
 10 11  2  0  0  0
 11 12  1  0  0  0
 12 13  2  0  0  0
  7 14  2  0  0  0
 14 15  1  0  0  0
  2 16  1  0  0  0
 16 21  1  0  0  0
 16 17  2  0  0  0
 17 18  1  0  0  0
 18 19  2  0  0  0
 19 20  1  0  0  0
 20 21  2  0  0  0
M  END
>  <Entry>
566

>  <title>
7-4123

>  <rigid docking scores>
-16.446

>  <InChIKey>
KUYHFAMCXJBHHQ-UHFFFAOYSA-N

>  <Pubchem>
110444636

$$$$
atoms 21 bonds 23
dotmatics
mol io
 21 23  0  0  0  0  0  0  0  0999 V2000
    4.9682    1.7903    0.0000 O   0  0  0  0  0  0  0  0  0  0  0  0
    4.1412    1.7903    0.0000 C   0  0  0  0  0  0  0  0  0  0  0  0
    3.7271    2.5062    0.0000 C   0  0  0  0  0  0  0  0  0  0  0  0
    2.8989    2.5062    0.0000 C   0  0  0  0  0  0  0  0  0  0  0  0
    2.4847    1.7903    0.0000 C   0  0  0  0  0  0  0  0  0  0  0  0
    1.6565    1.7903    0.0000 C   0  0  0  0  0  0  0  0  0  0  0  0
    1.2424    1.0745    0.0000 C   0  0  0  0  0  0  0  0  0  0  0  0
    0.4141    1.0745    0.0000 C   0  0  0  0  0  0  0  0  0  0  0  0
    0.0000    1.7903    0.0000 C   0  0  0  0  0  0  0  0  0  0  0  0
    0.4141    2.5062    0.0000 C   0  0  0  0  0  0  0  0  0  0  0  0
    1.2424    2.5062    0.0000 C   0  0  0  0  0  0  0  0  0  0  0  0
    2.8989    1.0745    0.0000 N   0  0  0  0  0  0  0  0  0  0  0  0
    3.7271    1.0745    0.0000 N   0  0  0  0  0  0  0  0  0  0  0  0
    4.1412    0.3586    0.0000 C   0  0  0  0  0  0  0  0  0  0  0  0
    3.7284   -0.3579    0.0000 C   0  0  0  0  0  0  0  0  0  0  0  0
    2.9014   -0.3586    0.0000 C   0  0  0  0  0  0  0  0  0  0  0  0
    2.4885   -1.0752    0.0000 C   0  0  0  0  0  0  0  0  0  0  0  0
    2.9026   -1.7910    0.0000 C   0  0  0  0  0  0  0  0  0  0  0  0
    3.7296   -1.7903    0.0000 C   0  0  0  0  0  0  0  0  0  0  0  0
    4.1437   -2.5062    0.0000 O   0  0  0  0  0  0  0  0  0  0  0  0
    4.1425   -1.0738    0.0000 C   0  0  0  0  0  0  0  0  0  0  0  0
  1  2  2  0  0  0
  2 13  1  0  0  0
  2  3  1  0  0  0
  3  4  2  0  0  0
  4  5  1  0  0  0
  5  6  1  0  0  0
  6 11  1  0  0  0
  6  7  2  0  0  0
  7  8  1  0  0  0
  8  9  2  0  0  0
  9 10  1  0  0  0
 10 11  2  0  0  0
  5 12  2  0  0  0
 12 13  1  0  0  0
 13 14  1  0  0  0
 14 15  1  0  0  0
 15 21  1  0  0  0
 15 16  2  0  0  0
 16 17  1  0  0  0
 17 18  2  0  0  0
 18 19  1  0  0  0
 19 20  1  0  0  0
 19 21  2  0  0  0
M  END
>  <Entry>
567

>  <title>
7-4347

>  <rigid docking scores>
-16.788

>  <InChIKey>
RRLZCELJWCXTRH-UHFFFAOYSA-N

$$$$
atoms 23 bonds 26
dotmatics
mol io
 23 26  0  0  0  0  0  0  0  0999 V2000
    3.5814    1.2424    0.0000 O   0  0  0  0  0  0  0  0  0  0  0  0
    3.5814    0.4154    0.0000 C   0  0  0  0  0  0  0  0  0  0  0  0
    2.8655    0.0012    0.0000 C   0  0  0  0  0  0  0  0  0  0  0  0
    2.8655   -0.8270    0.0000 C   0  0  0  0  0  0  0  0  0  0  0  0
    2.1497   -1.2411    0.0000 C   0  0  0  0  0  0  0  0  0  0  0  0
    1.4331   -0.8282    0.0000 N   0  0  0  0  0  0  0  0  0  0  0  0
    0.7173   -1.2424    0.0000 C   0  0  0  0  0  0  0  0  0  0  0  0
    0.0007   -0.8295    0.0000 C   0  0  0  0  0  0  0  0  0  0  0  0
    0.0000   -0.0025    0.0000 C   0  0  0  0  0  0  0  0  0  0  0  0
    0.7158    0.4116    0.0000 C   0  0  0  0  0  0  0  0  0  0  0  0
    1.4324   -0.0012    0.0000 C   0  0  0  0  0  0  0  0  0  0  0  0
    3.5814   -1.2411    0.0000 N   0  0  0  0  0  0  0  0  0  0  0  0
    4.2972   -0.8270    0.0000 C   0  0  0  0  0  0  0  0  0  0  0  0
    5.0841   -1.0814    0.0000 C   0  0  0  0  0  0  0  0  0  0  0  0
    5.5751   -0.4129    0.0000 C   0  0  0  0  0  0  0  0  0  0  0  0
    6.4021   -0.4129    0.0000 C   0  0  0  0  0  0  0  0  0  0  0  0
    6.8156    0.3033    0.0000 C   0  0  0  0  0  0  0  0  0  0  0  0
    7.6426    0.3033    0.0000 C   0  0  0  0  0  0  0  0  0  0  0  0
    8.0561   -0.4129    0.0000 C   0  0  0  0  0  0  0  0  0  0  0  0
    7.6426   -1.1291    0.0000 C   0  0  0  0  0  0  0  0  0  0  0  0
    6.8156   -1.1291    0.0000 C   0  0  0  0  0  0  0  0  0  0  0  0
    5.0841    0.2556    0.0000 N   0  0  0  0  0  0  0  0  0  0  0  0
    4.2972    0.0012    0.0000 N   0  0  0  0  0  0  0  0  0  0  0  0
  1  2  2  0  0  0
  2 23  1  0  0  0
  2  3  1  0  0  0
  3  4  2  0  0  0
  4  5  1  0  0  0
  5  6  1  0  0  0
  6 11  1  0  0  0
  6  7  1  0  0  0
  7  8  1  0  0  0
  8  9  1  0  0  0
  9 10  1  0  0  0
 10 11  1  0  0  0
  4 12  1  0  0  0
 12 13  2  0  0  0
 13 23  1  0  0  0
 13 14  1  0  0  0
 14 15  2  0  0  0
 15 16  1  0  0  0
 16 21  1  0  0  0
 16 17  2  0  0  0
 17 18  1  0  0  0
 18 19  2  0  0  0
 19 20  1  0  0  0
 20 21  2  0  0  0
 15 22  1  0  0  0
 22 23  1  0  0  0
M  END
>  <Entry>
568

>  <title>
7-4592

>  <rigid docking scores>
-16.8991

>  <InChIKey>
KAEHIAWCMMGXNQ-UHFFFAOYSA-N

$$$$
atoms 17 bonds 18
dotmatics
mol io
 17 18  0  0  0  0  0  0  0  0999 V2000
    3.9871    0.4442    0.0000 C   0  0  0  0  0  0  0  0  0  0  0  0
    3.9871   -0.3828    0.0000 C   0  0  0  0  0  0  0  0  0  0  0  0
    4.6562   -0.8689    0.0000 N   0  0  0  0  0  0  0  0  0  0  0  0
    4.4006   -1.6555    0.0000 N   0  0  0  0  0  0  0  0  0  0  0  0
    4.8867   -2.3245    0.0000 C   0  0  0  0  0  0  0  0  0  0  0  0
    3.5736   -1.6555    0.0000 C   0  0  0  0  0  0  0  0  0  0  0  0
    3.3180   -0.8689    0.0000 C   0  0  0  0  0  0  0  0  0  0  0  0
    2.5315   -0.6134    0.0000 C   0  0  0  0  0  0  0  0  0  0  0  0
    1.9169   -1.1668    0.0000 O   0  0  0  0  0  0  0  0  0  0  0  0
    2.3596    0.1955    0.0000 N   0  0  0  0  0  0  0  0  0  0  0  0
    1.5730    0.4511    0.0000 C   0  0  0  0  0  0  0  0  0  0  0  0
    0.9585   -0.1023    0.0000 C   0  0  0  0  0  0  0  0  0  0  0  0
    0.1719    0.1533    0.0000 N   0  0  0  0  0  0  0  0  0  0  0  0
    0.0000    0.9622    0.0000 C   0  0  0  0  0  0  0  0  0  0  0  0
    0.6146    1.5156    0.0000 C   0  0  0  0  0  0  0  0  0  0  0  0
    0.4426    2.3245    0.0000 Br  0  0  0  0  0  0  0  0  0  0  0  0
    1.4011    1.2600    0.0000 C   0  0  0  0  0  0  0  0  0  0  0  0
  1  2  1  0  0  0
  2  7  1  0  0  0
  2  3  2  0  0  0
  3  4  1  0  0  0
  4  5  1  0  0  0
  4  6  1  0  0  0
  6  7  2  0  0  0
  7  8  1  0  0  0
  8  9  2  0  0  0
  8 10  1  0  0  0
 10 11  1  0  0  0
 11 17  1  0  0  0
 11 12  2  0  0  0
 12 13  1  0  0  0
 13 14  2  0  0  0
 14 15  1  0  0  0
 15 16  1  0  0  0
 15 17  2  0  0  0
M  END
>  <Entry>
569

>  <title>
7-4599

>  <rigid docking scores>
-15.9442

>  <InChIKey>
QBVOEVOTMCENBT-UHFFFAOYSA-N

>  <Mcule>
MCULE-3677330818

$$$$
atoms 21 bonds 23
dotmatics
mol io
 21 23  0  0  0  0  0  0  0  0999 V2000
    0.0000    1.3668    0.0000 C   0  0  0  0  0  0  0  0  0  0  0  0
    0.8246    1.3043    0.0000 N   0  0  0  0  0  0  0  0  0  0  0  0
    1.2388    2.0201    0.0000 C   0  0  0  0  0  0  0  0  0  0  0  0
    2.0566    2.1426    0.0000 C   0  0  0  0  0  0  0  0  0  0  0  0
    2.6624    1.5796    0.0000 C   0  0  0  0  0  0  0  0  0  0  0  0
    2.5999    0.7550    0.0000 C   0  0  0  0  0  0  0  0  0  0  0  0
    3.3157    0.3409    0.0000 C   0  0  0  0  0  0  0  0  0  0  0  0
    4.0323    0.7537    0.0000 O   0  0  0  0  0  0  0  0  0  0  0  0
    3.3150   -0.4861    0.0000 N   0  0  0  0  0  0  0  0  0  0  0  0
    4.0308   -0.9003    0.0000 C   0  0  0  0  0  0  0  0  0  0  0  0
    4.0308   -1.7285    0.0000 C   0  0  0  0  0  0  0  0  0  0  0  0
    4.7467   -2.1426    0.0000 C   0  0  0  0  0  0  0  0  0  0  0  0
    5.4625   -1.7285    0.0000 C   0  0  0  0  0  0  0  0  0  0  0  0
    6.1843   -2.1426    0.0000 C   0  0  0  0  0  0  0  0  0  0  0  0
    6.9001   -1.7285    0.0000 C   0  0  0  0  0  0  0  0  0  0  0  0
    6.9001   -0.9003    0.0000 N   0  0  0  0  0  0  0  0  0  0  0  0
    6.1843   -0.4861    0.0000 C   0  0  0  0  0  0  0  0  0  0  0  0
    5.4625   -0.9003    0.0000 C   0  0  0  0  0  0  0  0  0  0  0  0
    4.7467   -0.4861    0.0000 C   0  0  0  0  0  0  0  0  0  0  0  0
    1.9161    0.2897    0.0000 C   0  0  0  0  0  0  0  0  0  0  0  0
    1.1261    0.5342    0.0000 C   0  0  0  0  0  0  0  0  0  0  0  0
  1  2  1  0  0  0
  2 21  1  0  0  0
  2  3  1  0  0  0
  3  4  1  0  0  0
  4  5  1  0  0  0
  5  6  1  0  0  0
  6  7  1  0  0  0
  7  8  2  0  0  0
  7  9  1  0  0  0
  9 10  1  0  0  0
 10 19  1  0  0  0
 10 11  2  0  0  0
 11 12  1  0  0  0
 12 13  2  0  0  0
 13 18  1  0  0  0
 13 14  1  0  0  0
 14 15  2  0  0  0
 15 16  1  0  0  0
 16 17  2  0  0  0
 17 18  1  0  0  0
 18 19  2  0  0  0
  6 20  1  0  0  0
 20 21  1  0  0  0
M  END
>  <Entry>
570

>  <title>
7-4894

>  <rigid docking scores>
-16.885

>  <InChIKey>
UPBRALSTBHGXEJ-UHFFFAOYSA-N

$$$$
atoms 19 bonds 21
dotmatics
mol io
 19 21  0  0  0  0  0  0  0  0999 V2000
   -3.2612    0.7162    0.0000 C   0  0  0  0  0  0  0  0  0  0  0  0
   -2.4342    0.7162    0.0000 C   0  0  0  0  0  0  0  0  0  0  0  0
   -2.0207    1.4324    0.0000 C   0  0  0  0  0  0  0  0  0  0  0  0
   -1.1937    1.4324    0.0000 N   0  0  0  0  0  0  0  0  0  0  0  0
   -0.7802    2.1486    0.0000 C   0  0  0  0  0  0  0  0  0  0  0  0
   -1.1937    2.8648    0.0000 O   0  0  0  0  0  0  0  0  0  0  0  0
    0.0468    2.1486    0.0000 C   0  0  0  0  0  0  0  0  0  0  0  0
    0.5329    2.8177    0.0000 C   0  0  0  0  0  0  0  0  0  0  0  0
    1.3195    2.5621    0.0000 C   0  0  0  0  0  0  0  0  0  0  0  0
    1.9885    3.0482    0.0000 C   0  0  0  0  0  0  0  0  0  0  0  0
    1.9885    3.8752    0.0000 C   0  0  0  0  0  0  0  0  0  0  0  0
    2.7751    4.1308    0.0000 C   0  0  0  0  0  0  0  0  0  0  0  0
    3.2612    3.4617    0.0000 C   0  0  0  0  0  0  0  0  0  0  0  0
    2.7751    2.7927    0.0000 S   0  0  0  0  0  0  0  0  0  0  0  0
    1.3195    1.7351    0.0000 O   0  0  0  0  0  0  0  0  0  0  0  0
    0.5329    1.4796    0.0000 N   0  0  0  0  0  0  0  0  0  0  0  0
   -0.7802    0.7162    0.0000 C   0  0  0  0  0  0  0  0  0  0  0  0
   -1.1937    0.0000    0.0000 C   0  0  0  0  0  0  0  0  0  0  0  0
   -2.0207    0.0000    0.0000 O   0  0  0  0  0  0  0  0  0  0  0  0
  1  2  1  0  0  0
  2 19  1  0  0  0
  2  3  1  0  0  0
  3  4  1  0  0  0
  4  5  1  0  0  0
  5  6  2  0  0  0
  5  7  1  0  0  0
  7 16  2  0  0  0
  7  8  1  0  0  0
  8  9  2  0  0  0
  9 10  1  0  0  0
 10 14  1  0  0  0
 10 11  2  0  0  0
 11 12  1  0  0  0
 12 13  2  0  0  0
 13 14  1  0  0  0
  9 15  1  0  0  0
 15 16  1  0  0  0
  4 17  1  0  0  0
 17 18  1  0  0  0
 18 19  1  0  0  0
M  END
>  <Entry>
571

>  <title>
1-6641

>  <rigid docking scores>
-15.9731

>  <InChIKey>
SQTQXNOQASONSK-UHFFFAOYSA-N

>  <Pubchem>
51305914

$$$$
atoms 23 bonds 26
dotmatics
mol io
 23 26  0  0  0  0  0  0  0  0999 V2000
    3.5342   -3.9741    0.0000 C   0  0  0  0  0  0  0  0  0  0  0  0
    3.2817   -3.1865    0.0000 N   0  0  0  0  0  0  0  0  0  0  0  0
    2.5464   -2.8081    0.0000 C   0  0  0  0  0  0  0  0  0  0  0  0
    2.9248   -2.0728    0.0000 C   0  0  0  0  0  0  0  0  0  0  0  0
    2.6724   -1.2852    0.0000 C   0  0  0  0  0  0  0  0  0  0  0  0
    1.8641   -1.1101    0.0000 O   0  0  0  0  0  0  0  0  0  0  0  0
    3.2282   -0.6729    0.0000 N   0  0  0  0  0  0  0  0  0  0  0  0
    2.9758    0.1147    0.0000 C   0  0  0  0  0  0  0  0  0  0  0  0
    2.1675    0.2898    0.0000 C   0  0  0  0  0  0  0  0  0  0  0  0
    1.9151    1.0774    0.0000 C   0  0  0  0  0  0  0  0  0  0  0  0
    2.4709    1.6898    0.0000 C   0  0  0  0  0  0  0  0  0  0  0  0
    2.2185    2.4773    0.0000 C   0  0  0  0  0  0  0  0  0  0  0  0
    2.7096    3.1458    0.0000 O   0  0  0  0  0  0  0  0  0  0  0  0
    2.2185    3.8143    0.0000 N   0  0  0  0  0  0  0  0  0  0  0  0
    1.4317    3.5599    0.0000 C   0  0  0  0  0  0  0  0  0  0  0  0
    0.7158    3.9741    0.0000 C   0  0  0  0  0  0  0  0  0  0  0  0
    0.0000    3.5599    0.0000 C   0  0  0  0  0  0  0  0  0  0  0  0
    0.0000    2.7317    0.0000 C   0  0  0  0  0  0  0  0  0  0  0  0
    0.7158    2.3176    0.0000 C   0  0  0  0  0  0  0  0  0  0  0  0
    1.4317    2.7317    0.0000 C   0  0  0  0  0  0  0  0  0  0  0  0
    3.2792    1.5146    0.0000 C   0  0  0  0  0  0  0  0  0  0  0  0
    3.5316    0.7270    0.0000 C   0  0  0  0  0  0  0  0  0  0  0  0
    3.6601   -2.4512    0.0000 C   0  0  0  0  0  0  0  0  0  0  0  0
  1  2  1  0  0  0
  2 23  1  0  0  0
  2  3  1  0  0  0
  3  4  1  0  0  0
  4  5  1  0  0  0
  5  6  2  0  0  0
  5  7  1  0  0  0
  7  8  1  0  0  0
  8 22  1  0  0  0
  8  9  2  0  0  0
  9 10  1  0  0  0
 10 11  2  0  0  0
 11 12  1  0  0  0
 12 20  2  0  0  0
 12 13  1  0  0  0
 13 14  1  0  0  0
 14 15  2  0  0  0
 15 20  1  0  0  0
 15 16  1  0  0  0
 16 17  2  0  0  0
 17 18  1  0  0  0
 18 19  2  0  0  0
 19 20  1  0  0  0
 11 21  1  0  0  0
 21 22  2  0  0  0
  4 23  1  0  0  0
M  END
>  <Entry>
572

>  <title>
7-5532

>  <rigid docking scores>
-15.3713

>  <InChIKey>
KQSDHTCTFDXMBD-UHFFFAOYSA-N

$$$$
atoms 19 bonds 21
dotmatics
mol io
 19 21  0  0  0  0  0  0  0  0999 V2000
    5.0253    2.3323    0.0000 C   0  0  0  0  0  0  0  0  0  0  0  0
    5.6944    1.8462    0.0000 C   0  0  0  0  0  0  0  0  0  0  0  0
    5.4388    1.0597    0.0000 S   0  0  0  0  0  0  0  0  0  0  0  0
    4.6118    1.0597    0.0000 C   0  0  0  0  0  0  0  0  0  0  0  0
    4.1257    0.3906    0.0000 C   0  0  0  0  0  0  0  0  0  0  0  0
    4.4621   -0.3649    0.0000 C   0  0  0  0  0  0  0  0  0  0  0  0
    3.9760   -1.0339    0.0000 C   0  0  0  0  0  0  0  0  0  0  0  0
    3.1535   -0.9475    0.0000 C   0  0  0  0  0  0  0  0  0  0  0  0
    2.6674   -1.6165    0.0000 C   0  0  0  0  0  0  0  0  0  0  0  0
    1.8450   -1.5301    0.0000 N   0  0  0  0  0  0  0  0  0  0  0  0
    1.4102   -2.2336    0.0000 C   0  0  0  0  0  0  0  0  0  0  0  0
    0.5891   -2.3323    0.0000 C   0  0  0  0  0  0  0  0  0  0  0  0
    0.0000   -1.7519    0.0000 C   0  0  0  0  0  0  0  0  0  0  0  0
    0.0864   -0.9295    0.0000 O   0  0  0  0  0  0  0  0  0  0  0  0
    0.7834   -0.4843    0.0000 C   0  0  0  0  0  0  0  0  0  0  0  0
    1.5660   -0.7516    0.0000 C   0  0  0  0  0  0  0  0  0  0  0  0
    2.8172   -0.1920    0.0000 C   0  0  0  0  0  0  0  0  0  0  0  0
    3.3033    0.4771    0.0000 N   0  0  0  0  0  0  0  0  0  0  0  0
    4.3563    1.8462    0.0000 N   0  0  0  0  0  0  0  0  0  0  0  0
  1 19  1  0  0  0
  1  2  2  0  0  0
  2  3  1  0  0  0
  3  4  1  0  0  0
  4  5  1  0  0  0
  5 18  1  0  0  0
  5  6  2  0  0  0
  6  7  1  0  0  0
  7  8  2  0  0  0
  8  9  1  0  0  0
  9 10  1  0  0  0
 10 16  1  0  0  0
 10 11  1  0  0  0
 11 12  1  0  0  0
 12 13  1  0  0  0
 13 14  1  0  0  0
 14 15  1  0  0  0
 15 16  1  0  0  0
  8 17  1  0  0  0
 17 18  2  0  0  0
  4 19  2  0  0  0
M  END
>  <Entry>
573

>  <title>
7-5905

>  <rigid docking scores>
-16.93

>  <InChIKey>
QRJLFGFPSFIOTP-UHFFFAOYSA-N

$$$$
atoms 25 bonds 28
dotmatics
mol io
 25 28  0  0  0  0  0  0  0  0999 V2000
    3.5917    1.2593    0.0000 O   0  0  0  0  0  0  0  0  0  0  0  0
    2.8785    0.8407    0.0000 C   0  0  0  0  0  0  0  0  0  0  0  0
    2.1594    1.2491    0.0000 N   0  0  0  0  0  0  0  0  0  0  0  0
    2.1534    2.0760    0.0000 C   0  0  0  0  0  0  0  0  0  0  0  0
    2.8693    2.4902    0.0000 N   0  0  0  0  0  0  0  0  0  0  0  0
    2.8693    3.3184    0.0000 C   0  0  0  0  0  0  0  0  0  0  0  0
    2.1534    3.7325    0.0000 N   0  0  0  0  0  0  0  0  0  0  0  0
    1.4317    3.3184    0.0000 C   0  0  0  0  0  0  0  0  0  0  0  0
    0.7158    3.7325    0.0000 C   0  0  0  0  0  0  0  0  0  0  0  0
    0.0000    3.3184    0.0000 C   0  0  0  0  0  0  0  0  0  0  0  0
    0.0000    2.4902    0.0000 C   0  0  0  0  0  0  0  0  0  0  0  0
    0.7158    2.0760    0.0000 C   0  0  0  0  0  0  0  0  0  0  0  0
    1.4317    2.4902    0.0000 C   0  0  0  0  0  0  0  0  0  0  0  0
    2.8844    0.0137    0.0000 C   0  0  0  0  0  0  0  0  0  0  0  0
    2.1712   -0.4049    0.0000 C   0  0  0  0  0  0  0  0  0  0  0  0
    2.1771   -1.2319    0.0000 C   0  0  0  0  0  0  0  0  0  0  0  0
    2.8962   -1.6402    0.0000 C   0  0  0  0  0  0  0  0  0  0  0  0
    3.6094   -1.2216    0.0000 C   0  0  0  0  0  0  0  0  0  0  0  0
    4.3286   -1.6300    0.0000 C   0  0  0  0  0  0  0  0  0  0  0  0
    4.3345   -2.4570    0.0000 N   0  0  0  0  0  0  0  0  0  0  0  0
    5.0070   -2.9383    0.0000 C   0  0  0  0  0  0  0  0  0  0  0  0
    4.7571   -3.7266    0.0000 C   0  0  0  0  0  0  0  0  0  0  0  0
    3.9301   -3.7325    0.0000 C   0  0  0  0  0  0  0  0  0  0  0  0
    3.6689   -2.9479    0.0000 C   0  0  0  0  0  0  0  0  0  0  0  0
    3.6035   -0.3947    0.0000 C   0  0  0  0  0  0  0  0  0  0  0  0
  1  2  2  0  0  0
  2  3  1  0  0  0
  3  4  1  0  0  0
  4 13  1  0  0  0
  4  5  2  0  0  0
  5  6  1  0  0  0
  6  7  2  0  0  0
  7  8  1  0  0  0
  8 13  1  0  0  0
  8  9  2  0  0  0
  9 10  1  0  0  0
 10 11  2  0  0  0
 11 12  1  0  0  0
 12 13  2  0  0  0
  2 14  1  0  0  0
 14 25  1  0  0  0
 14 15  2  0  0  0
 15 16  1  0  0  0
 16 17  2  0  0  0
 17 18  1  0  0  0
 18 19  1  0  0  0
 19 20  1  0  0  0
 20 24  1  0  0  0
 20 21  1  0  0  0
 21 22  1  0  0  0
 22 23  1  0  0  0
 23 24  1  0  0  0
 18 25  2  0  0  0
M  END
>  <Entry>
574

>  <title>
7-7895

>  <rigid docking scores>
-16.6527

>  <InChIKey>
MTZRCLAISGMBIJ-UHFFFAOYSA-N

$$$$
atoms 21 bonds 23
dotmatics
mol io
 21 23  0  0  0  0  0  0  0  0999 V2000
   -3.1012    3.4575    0.0000 C   0  0  0  0  0  0  0  0  0  0  0  0
   -2.2743    3.4575    0.0000 N   0  0  0  0  0  0  0  0  0  0  0  0
   -1.8607    4.1737    0.0000 C   0  0  0  0  0  0  0  0  0  0  0  0
   -1.0338    4.1737    0.0000 C   0  0  0  0  0  0  0  0  0  0  0  0
   -0.6202    3.4575    0.0000 N   0  0  0  0  0  0  0  0  0  0  0  0
    0.2068    3.4575    0.0000 C   0  0  0  0  0  0  0  0  0  0  0  0
    0.6202    4.1737    0.0000 O   0  0  0  0  0  0  0  0  0  0  0  0
    0.6202    2.7413    0.0000 N   0  0  0  0  0  0  0  0  0  0  0  0
    1.4473    2.7413    0.0000 C   0  0  0  0  0  0  0  0  0  0  0  0
    1.8607    3.4575    0.0000 C   0  0  0  0  0  0  0  0  0  0  0  0
    2.6878    3.4575    0.0000 C   0  0  0  0  0  0  0  0  0  0  0  0
    3.1012    2.7413    0.0000 C   0  0  0  0  0  0  0  0  0  0  0  0
    2.6878    2.0251    0.0000 C   0  0  0  0  0  0  0  0  0  0  0  0
    1.8607    2.0251    0.0000 C   0  0  0  0  0  0  0  0  0  0  0  0
    1.4473    1.3089    0.0000 C   0  0  0  0  0  0  0  0  0  0  0  0
    1.7836    0.5534    0.0000 N   0  0  0  0  0  0  0  0  0  0  0  0
    1.1690   -0.0000    0.0000 C   0  0  0  0  0  0  0  0  0  0  0  0
    0.4528    0.4135    0.0000 C   0  0  0  0  0  0  0  0  0  0  0  0
    0.6248    1.2224    0.0000 S   0  0  0  0  0  0  0  0  0  0  0  0
   -1.0338    2.7413    0.0000 C   0  0  0  0  0  0  0  0  0  0  0  0
   -1.8607    2.7413    0.0000 C   0  0  0  0  0  0  0  0  0  0  0  0
  1  2  1  0  0  0
  2 21  1  0  0  0
  2  3  1  0  0  0
  3  4  1  0  0  0
  4  5  1  0  0  0
  5  6  1  0  0  0
  6  7  2  0  0  0
  6  8  1  0  0  0
  8  9  1  0  0  0
  9 14  1  0  0  0
  9 10  2  0  0  0
 10 11  1  0  0  0
 11 12  2  0  0  0
 12 13  1  0  0  0
 13 14  2  0  0  0
 14 15  1  0  0  0
 15 19  1  0  0  0
 15 16  2  0  0  0
 16 17  1  0  0  0
 17 18  2  0  0  0
 18 19  1  0  0  0
  5 20  1  0  0  0
 20 21  1  0  0  0
M  END
>  <Entry>
575

>  <title>
7-8530

>  <rigid docking scores>
-16.02

>  <InChIKey>
UUSLYLVJQLXAKR-UHFFFAOYSA-N

$$$$
atoms 23 bonds 25
dotmatics
mol io
 23 25  0  0  0  0  0  0  0  0999 V2000
    5.4980    2.5176    0.0000 C   0  0  0  0  0  0  0  0  0  0  0  0
    5.4980    1.6906    0.0000 N   0  0  0  0  0  0  0  0  0  0  0  0
    6.1671    1.2045    0.0000 C   0  0  0  0  0  0  0  0  0  0  0  0
    5.9115    0.4180    0.0000 C   0  0  0  0  0  0  0  0  0  0  0  0
    5.0845    0.4180    0.0000 C   0  0  0  0  0  0  0  0  0  0  0  0
    4.5984   -0.2511    0.0000 N   0  0  0  0  0  0  0  0  0  0  0  0
    3.7760   -0.1646    0.0000 C   0  0  0  0  0  0  0  0  0  0  0  0
    3.4396    0.5909    0.0000 O   0  0  0  0  0  0  0  0  0  0  0  0
    3.2899   -0.8337    0.0000 C   0  0  0  0  0  0  0  0  0  0  0  0
    2.4674   -0.7473    0.0000 C   0  0  0  0  0  0  0  0  0  0  0  0
    1.9813   -1.4163    0.0000 C   0  0  0  0  0  0  0  0  0  0  0  0
    1.1588   -1.3299    0.0000 C   0  0  0  0  0  0  0  0  0  0  0  0
    0.8225   -0.5744    0.0000 C   0  0  0  0  0  0  0  0  0  0  0  0
    0.0000   -0.4879    0.0000 N   0  0  0  0  0  0  0  0  0  0  0  0
    1.3086    0.0947    0.0000 C   0  0  0  0  0  0  0  0  0  0  0  0
    2.1310    0.0082    0.0000 C   0  0  0  0  0  0  0  0  0  0  0  0
    4.9348   -1.0066    0.0000 C   0  0  0  0  0  0  0  0  0  0  0  0
    5.7573   -1.0930    0.0000 C   0  0  0  0  0  0  0  0  0  0  0  0
    6.0937   -1.8485    0.0000 C   0  0  0  0  0  0  0  0  0  0  0  0
    5.6076   -2.5176    0.0000 C   0  0  0  0  0  0  0  0  0  0  0  0
    4.7851   -2.4311    0.0000 C   0  0  0  0  0  0  0  0  0  0  0  0
    4.4487   -1.6756    0.0000 C   0  0  0  0  0  0  0  0  0  0  0  0
    4.8290    1.2045    0.0000 C   0  0  0  0  0  0  0  0  0  0  0  0
  1  2  1  0  0  0
  2 23  1  0  0  0
  2  3  1  0  0  0
  3  4  1  0  0  0
  4  5  1  0  0  0
  5  6  1  0  0  0
  6  7  1  0  0  0
  7  8  2  0  0  0
  7  9  1  0  0  0
  9 10  1  0  0  0
 10 16  1  0  0  0
 10 11  2  0  0  0
 11 12  1  0  0  0
 12 13  2  0  0  0
 13 14  1  0  0  0
 13 15  1  0  0  0
 15 16  2  0  0  0
  6 17  1  0  0  0
 17 22  1  0  0  0
 17 18  2  0  0  0
 18 19  1  0  0  0
 19 20  2  0  0  0
 20 21  1  0  0  0
 21 22  2  0  0  0
  5 23  1  0  0  0
M  END
>  <Entry>
576

>  <title>
7-8945

>  <rigid docking scores>
-17.598

>  <InChIKey>
DXNHQYMCNIDVFJ-UHFFFAOYSA-N

$$$$
atoms 21 bonds 23
dotmatics
mol io
 21 23  0  0  0  0  0  0  0  0999 V2000
   -3.1012    3.4575    0.0000 C   0  0  0  0  0  0  0  0  0  0  0  0
   -2.2743    3.4575    0.0000 N   0  0  0  0  0  0  0  0  0  0  0  0
   -1.8607    4.1737    0.0000 C   0  0  0  0  0  0  0  0  0  0  0  0
   -1.0338    4.1737    0.0000 C   0  0  0  0  0  0  0  0  0  0  0  0
   -0.6202    3.4575    0.0000 N   0  0  0  0  0  0  0  0  0  0  0  0
    0.2068    3.4575    0.0000 C   0  0  0  0  0  0  0  0  0  0  0  0
    0.6202    4.1737    0.0000 O   0  0  0  0  0  0  0  0  0  0  0  0
    0.6202    2.7413    0.0000 N   0  0  0  0  0  0  0  0  0  0  0  0
    1.4473    2.7413    0.0000 C   0  0  0  0  0  0  0  0  0  0  0  0
    1.8607    3.4575    0.0000 C   0  0  0  0  0  0  0  0  0  0  0  0
    2.6878    3.4575    0.0000 C   0  0  0  0  0  0  0  0  0  0  0  0
    3.1012    2.7413    0.0000 C   0  0  0  0  0  0  0  0  0  0  0  0
    2.6878    2.0251    0.0000 N   0  0  0  0  0  0  0  0  0  0  0  0
    1.8607    2.0251    0.0000 C   0  0  0  0  0  0  0  0  0  0  0  0
    1.4473    1.3089    0.0000 C   0  0  0  0  0  0  0  0  0  0  0  0
    1.7836    0.5534    0.0000 C   0  0  0  0  0  0  0  0  0  0  0  0
    1.1690   -0.0000    0.0000 C   0  0  0  0  0  0  0  0  0  0  0  0
    0.4528    0.4135    0.0000 C   0  0  0  0  0  0  0  0  0  0  0  0
    0.6248    1.2224    0.0000 S   0  0  0  0  0  0  0  0  0  0  0  0
   -1.0338    2.7413    0.0000 C   0  0  0  0  0  0  0  0  0  0  0  0
   -1.8607    2.7413    0.0000 C   0  0  0  0  0  0  0  0  0  0  0  0
  1  2  1  0  0  0
  2 21  1  0  0  0
  2  3  1  0  0  0
  3  4  1  0  0  0
  4  5  1  0  0  0
  5  6  1  0  0  0
  6  7  2  0  0  0
  6  8  1  0  0  0
  8  9  1  0  0  0
  9 14  1  0  0  0
  9 10  2  0  0  0
 10 11  1  0  0  0
 11 12  2  0  0  0
 12 13  1  0  0  0
 13 14  2  0  0  0
 14 15  1  0  0  0
 15 19  1  0  0  0
 15 16  2  0  0  0
 16 17  1  0  0  0
 17 18  2  0  0  0
 18 19  1  0  0  0
  5 20  1  0  0  0
 20 21  1  0  0  0
M  END
>  <Entry>
577

>  <title>
7-8962

>  <rigid docking scores>
-15.3519

>  <InChIKey>
QZXDFDDHBKAXOE-UHFFFAOYSA-N

$$$$
atoms 19 bonds 21
dotmatics
mol io
 19 21  0  0  0  0  0  0  0  0999 V2000
    7.4492    0.0000    0.0000 C   0  0  0  0  0  0  0  0  0  0  0  0
    6.6222    0.0000    0.0000 C   0  0  0  0  0  0  0  0  0  0  0  0
    6.2081   -0.7158    0.0000 C   0  0  0  0  0  0  0  0  0  0  0  0
    5.3799   -0.7158    0.0000 C   0  0  0  0  0  0  0  0  0  0  0  0
    4.9657    0.0000    0.0000 N   0  0  0  0  0  0  0  0  0  0  0  0
    4.1375    0.0000    0.0000 C   0  0  0  0  0  0  0  0  0  0  0  0
    3.7234   -0.7158    0.0000 C   0  0  0  0  0  0  0  0  0  0  0  0
    2.8951   -0.7158    0.0000 C   0  0  0  0  0  0  0  0  0  0  0  0
    2.4810    0.0000    0.0000 C   0  0  0  0  0  0  0  0  0  0  0  0
    1.6540    0.0000    0.0000 C   0  0  0  0  0  0  0  0  0  0  0  0
    1.2405   -0.7162    0.0000 C   0  0  0  0  0  0  0  0  0  0  0  0
    0.4135   -0.7162    0.0000 C   0  0  0  0  0  0  0  0  0  0  0  0
    0.0000    0.0000    0.0000 C   0  0  0  0  0  0  0  0  0  0  0  0
    0.4135    0.7162    0.0000 N   0  0  0  0  0  0  0  0  0  0  0  0
    1.2405    0.7162    0.0000 C   0  0  0  0  0  0  0  0  0  0  0  0
    2.8951    0.7158    0.0000 N   0  0  0  0  0  0  0  0  0  0  0  0
    3.7234    0.7158    0.0000 N   0  0  0  0  0  0  0  0  0  0  0  0
    5.3799    0.7158    0.0000 C   0  0  0  0  0  0  0  0  0  0  0  0
    6.2081    0.7158    0.0000 C   0  0  0  0  0  0  0  0  0  0  0  0
  1  2  1  0  0  0
  2 19  1  0  0  0
  2  3  1  0  0  0
  3  4  1  0  0  0
  4  5  1  0  0  0
  5  6  1  0  0  0
  6 17  1  0  0  0
  6  7  2  0  0  0
  7  8  1  0  0  0
  8  9  2  0  0  0
  9 10  1  0  0  0
 10 15  1  0  0  0
 10 11  2  0  0  0
 11 12  1  0  0  0
 12 13  2  0  0  0
 13 14  1  0  0  0
 14 15  2  0  0  0
  9 16  1  0  0  0
 16 17  2  0  0  0
  5 18  1  0  0  0
 18 19  1  0  0  0
M  END
>  <Entry>
578

>  <title>
7-8993

>  <rigid docking scores>
-19.8698

>  <InChIKey>
AXNHZGXATJLIKR-UHFFFAOYSA-N

$$$$
atoms 20 bonds 22
dotmatics
mol io
 20 22  0  0  0  0  0  0  0  0999 V2000
   -3.3371    1.4324    0.0000 C   0  0  0  0  0  0  0  0  0  0  0  0
   -2.5101    1.4324    0.0000 C   0  0  0  0  0  0  0  0  0  0  0  0
   -2.0966    2.1486    0.0000 C   0  0  0  0  0  0  0  0  0  0  0  0
   -1.2696    2.1486    0.0000 N   0  0  0  0  0  0  0  0  0  0  0  0
   -0.8561    2.8648    0.0000 C   0  0  0  0  0  0  0  0  0  0  0  0
   -0.0291    2.8648    0.0000 C   0  0  0  0  0  0  0  0  0  0  0  0
    0.4570    3.5339    0.0000 C   0  0  0  0  0  0  0  0  0  0  0  0
    1.2435    3.2783    0.0000 O   0  0  0  0  0  0  0  0  0  0  0  0
    1.2435    2.4513    0.0000 C   0  0  0  0  0  0  0  0  0  0  0  0
    1.9126    1.9652    0.0000 C   0  0  0  0  0  0  0  0  0  0  0  0
    2.6681    2.3016    0.0000 C   0  0  0  0  0  0  0  0  0  0  0  0
    3.3371    1.8155    0.0000 C   0  0  0  0  0  0  0  0  0  0  0  0
    3.2507    0.9930    0.0000 N   0  0  0  0  0  0  0  0  0  0  0  0
    2.4952    0.6566    0.0000 C   0  0  0  0  0  0  0  0  0  0  0  0
    1.8261    1.1427    0.0000 C   0  0  0  0  0  0  0  0  0  0  0  0
    0.4570    2.1958    0.0000 N   0  0  0  0  0  0  0  0  0  0  0  0
   -0.8561    1.4324    0.0000 C   0  0  0  0  0  0  0  0  0  0  0  0
   -1.2696    0.7162    0.0000 C   0  0  0  0  0  0  0  0  0  0  0  0
   -0.8561    0.0000    0.0000 C   0  0  0  0  0  0  0  0  0  0  0  0
   -2.0966    0.7162    0.0000 O   0  0  0  0  0  0  0  0  0  0  0  0
  1  2  1  0  0  0
  2 20  1  0  0  0
  2  3  1  0  0  0
  3  4  1  0  0  0
  4  5  1  0  0  0
  5  6  1  0  0  0
  6 16  1  0  0  0
  6  7  2  0  0  0
  7  8  1  0  0  0
  8  9  1  0  0  0
  9 10  1  0  0  0
 10 15  1  0  0  0
 10 11  2  0  0  0
 11 12  1  0  0  0
 12 13  2  0  0  0
 13 14  1  0  0  0
 14 15  2  0  0  0
  9 16  2  0  0  0
  4 17  1  0  0  0
 17 18  1  0  0  0
 18 19  1  0  0  0
 18 20  1  0  0  0
M  END
>  <Entry>
579

>  <title>
7-9112

>  <rigid docking scores>
-15.5629

>  <InChIKey>
YVWBCNOHNJWDGV-UHFFFAOYSA-N

$$$$
atoms 19 bonds 21
dotmatics
mol io
 19 21  0  0  0  0  0  0  0  0999 V2000
   -3.3851    0.7162    0.0000 C   0  0  0  0  0  0  0  0  0  0  0  0
   -2.9716    1.4324    0.0000 C   0  0  0  0  0  0  0  0  0  0  0  0
   -2.1446    1.4324    0.0000 C   0  0  0  0  0  0  0  0  0  0  0  0
   -1.7311    2.1486    0.0000 C   0  0  0  0  0  0  0  0  0  0  0  0
   -2.0674    2.9041    0.0000 N   0  0  0  0  0  0  0  0  0  0  0  0
   -1.4529    3.4575    0.0000 C   0  0  0  0  0  0  0  0  0  0  0  0
   -0.7367    3.0440    0.0000 N   0  0  0  0  0  0  0  0  0  0  0  0
    0.0188    3.3804    0.0000 C   0  0  0  0  0  0  0  0  0  0  0  0
    0.6879    2.8943    0.0000 C   0  0  0  0  0  0  0  0  0  0  0  0
    1.4434    3.2306    0.0000 C   0  0  0  0  0  0  0  0  0  0  0  0
    2.1125    2.7445    0.0000 N   0  0  0  0  0  0  0  0  0  0  0  0
    2.8990    3.0001    0.0000 C   0  0  0  0  0  0  0  0  0  0  0  0
    3.3851    2.3310    0.0000 C   0  0  0  0  0  0  0  0  0  0  0  0
    2.8990    1.6620    0.0000 C   0  0  0  0  0  0  0  0  0  0  0  0
    2.1125    1.9175    0.0000 C   0  0  0  0  0  0  0  0  0  0  0  0
   -0.9086    2.2351    0.0000 N   0  0  0  0  0  0  0  0  0  0  0  0
   -1.7311    0.7162    0.0000 C   0  0  0  0  0  0  0  0  0  0  0  0
   -2.1446    0.0000    0.0000 C   0  0  0  0  0  0  0  0  0  0  0  0
   -2.9716    0.0000    0.0000 N   0  0  0  0  0  0  0  0  0  0  0  0
  1 19  1  0  0  0
  1  2  2  0  0  0
  2  3  1  0  0  0
  3  4  1  0  0  0
  4 16  2  0  0  0
  4  5  1  0  0  0
  5  6  2  0  0  0
  6  7  1  0  0  0
  7  8  1  0  0  0
  8  9  1  0  0  0
  9 10  1  0  0  0
 10 11  1  0  0  0
 11 15  1  0  0  0
 11 12  1  0  0  0
 12 13  1  0  0  0
 13 14  1  0  0  0
 14 15  1  0  0  0
  7 16  1  0  0  0
  3 17  2  0  0  0
 17 18  1  0  0  0
 18 19  2  0  0  0
M  END
>  <Entry>
580

>  <title>
7-9616

>  <rigid docking scores>
-17.7093

>  <InChIKey>
JFGAZGMWWUFGIT-UHFFFAOYSA-N

$$$$
atoms 19 bonds 21
dotmatics
mol io
 19 21  0  0  0  0  0  0  0  0999 V2000
   -2.5844    2.7270    0.0000 C   0  0  0  0  0  0  0  0  0  0  0  0
   -1.7574    2.7270    0.0000 C   0  0  0  0  0  0  0  0  0  0  0  0
   -1.2713    3.3960    0.0000 C   0  0  0  0  0  0  0  0  0  0  0  0
   -0.4848    3.1405    0.0000 C   0  0  0  0  0  0  0  0  0  0  0  0
    0.1843    3.6266    0.0000 C   0  0  0  0  0  0  0  0  0  0  0  0
    0.0978    4.4490    0.0000 O   0  0  0  0  0  0  0  0  0  0  0  0
    0.9398    3.2902    0.0000 N   0  0  0  0  0  0  0  0  0  0  0  0
    1.6089    3.7763    0.0000 C   0  0  0  0  0  0  0  0  0  0  0  0
    2.3644    3.4399    0.0000 C   0  0  0  0  0  0  0  0  0  0  0  0
    2.4508    2.6174    0.0000 C   0  0  0  0  0  0  0  0  0  0  0  0
    1.7817    2.1313    0.0000 C   0  0  0  0  0  0  0  0  0  0  0  0
    1.8682    1.3089    0.0000 C   0  0  0  0  0  0  0  0  0  0  0  0
    2.5844    0.8954    0.0000 N   0  0  0  0  0  0  0  0  0  0  0  0
    2.4124    0.0864    0.0000 C   0  0  0  0  0  0  0  0  0  0  0  0
    1.5900   -0.0000    0.0000 C   0  0  0  0  0  0  0  0  0  0  0  0
    1.2536    0.7555    0.0000 N   0  0  0  0  0  0  0  0  0  0  0  0
    1.0262    2.4677    0.0000 C   0  0  0  0  0  0  0  0  0  0  0  0
   -0.4848    2.3135    0.0000 N   0  0  0  0  0  0  0  0  0  0  0  0
   -1.2713    2.0579    0.0000 O   0  0  0  0  0  0  0  0  0  0  0  0
  1  2  1  0  0  0
  2 19  1  0  0  0
  2  3  2  0  0  0
  3  4  1  0  0  0
  4  5  1  0  0  0
  5  6  2  0  0  0
  5  7  1  0  0  0
  7 17  1  0  0  0
  7  8  1  0  0  0
  8  9  1  0  0  0
  9 10  1  0  0  0
 10 11  1  0  0  0
 11 12  1  0  0  0
 12 16  1  0  0  0
 12 13  2  0  0  0
 13 14  1  0  0  0
 14 15  2  0  0  0
 15 16  1  0  0  0
 11 17  1  0  0  0
  4 18  2  0  0  0
 18 19  1  0  0  0
M  END
>  <Entry>
581

>  <title>
8-615

>  <rigid docking scores>
-17.288

>  <InChIKey>
JXDUASYBNXHIJA-UHFFFAOYSA-N

$$$$
atoms 22 bonds 24
dotmatics
mol io
 22 24  0  0  0  0  0  0  0  0999 V2000
    8.5743    0.1066    0.0000 C   0  0  0  0  0  0  0  0  0  0  0  0
    7.8292   -0.2523    0.0000 N   0  0  0  0  0  0  0  0  0  0  0  0
    7.8292   -1.0793    0.0000 C   0  0  0  0  0  0  0  0  0  0  0  0
    7.1826   -1.5949    0.0000 C   0  0  0  0  0  0  0  0  0  0  0  0
    6.3764   -1.4109    0.0000 C   0  0  0  0  0  0  0  0  0  0  0  0
    6.0176   -0.6658    0.0000 N   0  0  0  0  0  0  0  0  0  0  0  0
    5.1906   -0.6658    0.0000 C   0  0  0  0  0  0  0  0  0  0  0  0
    4.7771    0.0504    0.0000 C   0  0  0  0  0  0  0  0  0  0  0  0
    3.9501    0.0504    0.0000 N   0  0  0  0  0  0  0  0  0  0  0  0
    3.5366    0.7666    0.0000 C   0  0  0  0  0  0  0  0  0  0  0  0
    3.9501    1.4828    0.0000 O   0  0  0  0  0  0  0  0  0  0  0  0
    2.7096    0.7666    0.0000 C   0  0  0  0  0  0  0  0  0  0  0  0
    2.2185    0.0981    0.0000 C   0  0  0  0  0  0  0  0  0  0  0  0
    1.4317    0.3525    0.0000 C   0  0  0  0  0  0  0  0  0  0  0  0
    0.7158   -0.0616    0.0000 C   0  0  0  0  0  0  0  0  0  0  0  0
    0.0000    0.3525    0.0000 C   0  0  0  0  0  0  0  0  0  0  0  0
    0.0000    1.1808    0.0000 C   0  0  0  0  0  0  0  0  0  0  0  0
    0.7158    1.5949    0.0000 C   0  0  0  0  0  0  0  0  0  0  0  0
    1.4317    1.1808    0.0000 C   0  0  0  0  0  0  0  0  0  0  0  0
    2.2185    1.4352    0.0000 O   0  0  0  0  0  0  0  0  0  0  0  0
    6.3764    0.0793    0.0000 C   0  0  0  0  0  0  0  0  0  0  0  0
    7.1826    0.2634    0.0000 C   0  0  0  0  0  0  0  0  0  0  0  0
  1  2  1  0  0  0
  2 22  1  0  0  0
  2  3  1  0  0  0
  3  4  1  0  0  0
  4  5  1  0  0  0
  5  6  1  0  0  0
  6  7  1  0  0  0
  7  8  1  0  0  0
  8  9  1  0  0  0
  9 10  1  0  0  0
 10 11  2  0  0  0
 10 12  1  0  0  0
 12 20  1  0  0  0
 12 13  2  0  0  0
 13 14  1  0  0  0
 14 19  1  0  0  0
 14 15  2  0  0  0
 15 16  1  0  0  0
 16 17  2  0  0  0
 17 18  1  0  0  0
 18 19  2  0  0  0
 19 20  1  0  0  0
  6 21  1  0  0  0
 21 22  1  0  0  0
M  END
>  <Entry>
582

>  <title>
8-728

>  <rigid docking scores>
-16.0178

>  <InChIKey>
GDMWHYCBCAPGBW-UHFFFAOYSA-N

$$$$
atoms 25 bonds 28
dotmatics
mol io
 25 28  0  0  0  0  0  0  0  0999 V2000
    0.7158    3.0692    0.0000 C   0  0  0  0  0  0  0  0  0  0  0  0
    0.7158    2.2422    0.0000 C   0  0  0  0  0  0  0  0  0  0  0  0
    0.0000    1.8281    0.0000 C   0  0  0  0  0  0  0  0  0  0  0  0
    0.0000    0.9998    0.0000 C   0  0  0  0  0  0  0  0  0  0  0  0
    0.7158    0.5857    0.0000 C   0  0  0  0  0  0  0  0  0  0  0  0
    1.4317    0.9998    0.0000 C   0  0  0  0  0  0  0  0  0  0  0  0
    2.1534    0.5857    0.0000 C   0  0  0  0  0  0  0  0  0  0  0  0
    2.1594   -0.2413    0.0000 C   0  0  0  0  0  0  0  0  0  0  0  0
    2.8785   -0.6496    0.0000 O   0  0  0  0  0  0  0  0  0  0  0  0
    1.4461   -0.6599    0.0000 N   0  0  0  0  0  0  0  0  0  0  0  0
    1.4520   -1.4868    0.0000 C   0  0  0  0  0  0  0  0  0  0  0  0
    2.0410   -2.0674    0.0000 C   0  0  0  0  0  0  0  0  0  0  0  0
    1.4604   -2.6564    0.0000 N   0  0  0  0  0  0  0  0  0  0  0  0
    1.4663   -3.4833    0.0000 C   0  0  0  0  0  0  0  0  0  0  0  0
    0.8714   -2.0758    0.0000 C   0  0  0  0  0  0  0  0  0  0  0  0
    2.8693    0.9998    0.0000 C   0  0  0  0  0  0  0  0  0  0  0  0
    2.8693    1.8281    0.0000 C   0  0  0  0  0  0  0  0  0  0  0  0
    3.5851    2.2422    0.0000 C   0  0  0  0  0  0  0  0  0  0  0  0
    3.5844    3.0692    0.0000 C   0  0  0  0  0  0  0  0  0  0  0  0
    4.3003    3.4833    0.0000 C   0  0  0  0  0  0  0  0  0  0  0  0
    5.0168    3.0705    0.0000 C   0  0  0  0  0  0  0  0  0  0  0  0
    5.0175    2.2435    0.0000 N   0  0  0  0  0  0  0  0  0  0  0  0
    4.3017    1.8293    0.0000 C   0  0  0  0  0  0  0  0  0  0  0  0
    2.1534    2.2422    0.0000 N   0  0  0  0  0  0  0  0  0  0  0  0
    1.4317    1.8281    0.0000 C   0  0  0  0  0  0  0  0  0  0  0  0
  1  2  1  0  0  0
  2 25  1  0  0  0
  2  3  2  0  0  0
  3  4  1  0  0  0
  4  5  2  0  0  0
  5  6  1  0  0  0
  6 25  1  0  0  0
  6  7  2  0  0  0
  7  8  1  0  0  0
  8  9  2  0  0  0
  8 10  1  0  0  0
 10 11  1  0  0  0
 11 15  1  0  0  0
 11 12  1  0  0  0
 12 13  1  0  0  0
 13 14  1  0  0  0
 13 15  1  0  0  0
  7 16  1  0  0  0
 16 17  2  0  0  0
 17 18  1  0  0  0
 18 23  1  0  0  0
 18 19  2  0  0  0
 19 20  1  0  0  0
 20 21  2  0  0  0
 21 22  1  0  0  0
 22 23  2  0  0  0
 17 24  1  0  0  0
 24 25  2  0  0  0
M  END
>  <Entry>
583

>  <title>
8-761

>  <rigid docking scores>
-17.9145

>  <InChIKey>
XAGGEALJSTZSGR-UHFFFAOYSA-N

$$$$
atoms 20 bonds 23
dotmatics
mol io
 20 23  0  0  0  0  0  0  0  0999 V2000
    3.9501    1.2250    0.0000 O   0  0  0  0  0  0  0  0  0  0  0  0
    3.5366    0.5088    0.0000 C   0  0  0  0  0  0  0  0  0  0  0  0
    3.9501   -0.2074    0.0000 N   0  0  0  0  0  0  0  0  0  0  0  0
    4.7771   -0.2074    0.0000 C   0  0  0  0  0  0  0  0  0  0  0  0
    5.1906    0.5088    0.0000 C   0  0  0  0  0  0  0  0  0  0  0  0
    6.0176    0.5088    0.0000 C   0  0  0  0  0  0  0  0  0  0  0  0
    6.4311   -0.2074    0.0000 C   0  0  0  0  0  0  0  0  0  0  0  0
    7.1473   -0.6209    0.0000 C   0  0  0  0  0  0  0  0  0  0  0  0
    6.7338   -1.3371    0.0000 C   0  0  0  0  0  0  0  0  0  0  0  0
    6.0176   -0.9236    0.0000 N   0  0  0  0  0  0  0  0  0  0  0  0
    5.1906   -0.9236    0.0000 C   0  0  0  0  0  0  0  0  0  0  0  0
    2.7096    0.5088    0.0000 C   0  0  0  0  0  0  0  0  0  0  0  0
    2.2185   -0.1597    0.0000 C   0  0  0  0  0  0  0  0  0  0  0  0
    1.4317    0.0947    0.0000 C   0  0  0  0  0  0  0  0  0  0  0  0
    0.7158   -0.3194    0.0000 C   0  0  0  0  0  0  0  0  0  0  0  0
    0.0000    0.0947    0.0000 C   0  0  0  0  0  0  0  0  0  0  0  0
    0.0000    0.9230    0.0000 C   0  0  0  0  0  0  0  0  0  0  0  0
    0.7158    1.3371    0.0000 C   0  0  0  0  0  0  0  0  0  0  0  0
    1.4317    0.9230    0.0000 C   0  0  0  0  0  0  0  0  0  0  0  0
    2.2185    1.1773    0.0000 O   0  0  0  0  0  0  0  0  0  0  0  0
  1  2  2  0  0  0
  2  3  1  0  0  0
  3  4  1  0  0  0
  4 11  1  0  0  0
  4  5  1  0  0  0
  5  6  1  0  0  0
  6  7  1  0  0  0
  7 10  1  0  0  0
  7  8  1  0  0  0
  8  9  1  0  0  0
  9 10  1  0  0  0
 10 11  1  0  0  0
  2 12  1  0  0  0
 12 20  1  0  0  0
 12 13  2  0  0  0
 13 14  1  0  0  0
 14 19  1  0  0  0
 14 15  2  0  0  0
 15 16  1  0  0  0
 16 17  2  0  0  0
 17 18  1  0  0  0
 18 19  2  0  0  0
 19 20  1  0  0  0
M  END
>  <Entry>
584

>  <title>
8-3008

>  <rigid docking scores>
-16.0573

>  <InChIKey>
OAMYIXGUCFREBD-UHFFFAOYSA-N

$$$$
atoms 20 bonds 22
dotmatics
mol io
 20 22  0  0  0  0  0  0  0  0999 V2000
    6.6019    1.9445    0.0000 C   0  0  0  0  0  0  0  0  0  0  0  0
    5.8857    1.5310    0.0000 O   0  0  0  0  0  0  0  0  0  0  0  0
    5.8857    0.7040    0.0000 C   0  0  0  0  0  0  0  0  0  0  0  0
    6.6019    0.2905    0.0000 C   0  0  0  0  0  0  0  0  0  0  0  0
    6.6019   -0.5365    0.0000 C   0  0  0  0  0  0  0  0  0  0  0  0
    5.8857   -0.9500    0.0000 C   0  0  0  0  0  0  0  0  0  0  0  0
    5.1695   -0.5365    0.0000 C   0  0  0  0  0  0  0  0  0  0  0  0
    4.4533   -0.9500    0.0000 C   0  0  0  0  0  0  0  0  0  0  0  0
    4.3669   -1.7725    0.0000 C   0  0  0  0  0  0  0  0  0  0  0  0
    3.5580   -1.9445    0.0000 S   0  0  0  0  0  0  0  0  0  0  0  0
    3.1445   -1.2283    0.0000 C   0  0  0  0  0  0  0  0  0  0  0  0
    2.3220   -1.1418    0.0000 N   0  0  0  0  0  0  0  0  0  0  0  0
    1.9856   -0.3863    0.0000 C   0  0  0  0  0  0  0  0  0  0  0  0
    2.4717    0.2828    0.0000 O   0  0  0  0  0  0  0  0  0  0  0  0
    1.1631   -0.2999    0.0000 C   0  0  0  0  0  0  0  0  0  0  0  0
    0.5204   -0.8203    0.0000 C   0  0  0  0  0  0  0  0  0  0  0  0
    0.0000   -0.1776    0.0000 C   0  0  0  0  0  0  0  0  0  0  0  0
    0.6427    0.3428    0.0000 C   0  0  0  0  0  0  0  0  0  0  0  0
    3.6978   -0.6137    0.0000 N   0  0  0  0  0  0  0  0  0  0  0  0
    5.1695    0.2905    0.0000 C   0  0  0  0  0  0  0  0  0  0  0  0
  1  2  1  0  0  0
  2  3  1  0  0  0
  3 20  1  0  0  0
  3  4  2  0  0  0
  4  5  1  0  0  0
  5  6  2  0  0  0
  6  7  1  0  0  0
  7  8  1  0  0  0
  8 19  1  0  0  0
  8  9  2  0  0  0
  9 10  1  0  0  0
 10 11  1  0  0  0
 11 12  1  0  0  0
 12 13  1  0  0  0
 13 14  2  0  0  0
 13 15  1  0  0  0
 15 18  1  0  0  0
 15 16  1  0  0  0
 16 17  1  0  0  0
 17 18  1  0  0  0
 11 19  2  0  0  0
  7 20  2  0  0  0
M  END
>  <Entry>
585

>  <title>
1-7466

>  <rigid docking scores>
-17.125

>  <InChIKey>
JLGQKSAGFPWTQN-UHFFFAOYSA-N

>  <Pubchem>
45551856

$$$$
atoms 20 bonds 22
dotmatics
mol io
 20 22  0  0  0  0  0  0  0  0999 V2000
   -3.1398    1.9822    0.0000 C   0  0  0  0  0  0  0  0  0  0  0  0
   -2.3128    1.9822    0.0000 N   0  0  0  0  0  0  0  0  0  0  0  0
   -1.8267    2.6512    0.0000 C   0  0  0  0  0  0  0  0  0  0  0  0
   -1.0401    2.3957    0.0000 C   0  0  0  0  0  0  0  0  0  0  0  0
   -0.3711    2.8818    0.0000 C   0  0  0  0  0  0  0  0  0  0  0  0
   -0.4575    3.7042    0.0000 O   0  0  0  0  0  0  0  0  0  0  0  0
    0.3844    2.5454    0.0000 N   0  0  0  0  0  0  0  0  0  0  0  0
    1.0535    3.0315    0.0000 C   0  0  0  0  0  0  0  0  0  0  0  0
    1.8090    2.6951    0.0000 C   0  0  0  0  0  0  0  0  0  0  0  0
    2.5252    3.1086    0.0000 C   0  0  0  0  0  0  0  0  0  0  0  0
    3.1398    2.5552    0.0000 C   0  0  0  0  0  0  0  0  0  0  0  0
    2.8034    1.7997    0.0000 C   0  0  0  0  0  0  0  0  0  0  0  0
    1.9809    1.8862    0.0000 O   0  0  0  0  0  0  0  0  0  0  0  0
   -1.0401    1.5687    0.0000 C   0  0  0  0  0  0  0  0  0  0  0  0
   -0.3711    1.0826    0.0000 C   0  0  0  0  0  0  0  0  0  0  0  0
    0.4154    1.3381    0.0000 C   0  0  0  0  0  0  0  0  0  0  0  0
    0.9015    0.6691    0.0000 C   0  0  0  0  0  0  0  0  0  0  0  0
    0.4154   -0.0000    0.0000 C   0  0  0  0  0  0  0  0  0  0  0  0
   -0.3711    0.2556    0.0000 O   0  0  0  0  0  0  0  0  0  0  0  0
   -1.8267    1.3131    0.0000 N   0  0  0  0  0  0  0  0  0  0  0  0
  1  2  1  0  0  0
  2 20  1  0  0  0
  2  3  1  0  0  0
  3  4  2  0  0  0
  4  5  1  0  0  0
  5  6  2  0  0  0
  5  7  1  0  0  0
  7  8  1  0  0  0
  8  9  1  0  0  0
  9 13  1  0  0  0
  9 10  1  0  0  0
 10 11  1  0  0  0
 11 12  1  0  0  0
 12 13  1  0  0  0
  4 14  1  0  0  0
 14 15  1  0  0  0
 15 19  1  0  0  0
 15 16  2  0  0  0
 16 17  1  0  0  0
 17 18  2  0  0  0
 18 19  1  0  0  0
 14 20  2  0  0  0
M  END
>  <Entry>
586

>  <title>
1-7471

>  <rigid docking scores>
-16.4359

>  <InChIKey>
QEGGWWFOZVLBIN-UHFFFAOYSA-N

$$$$
atoms 22 bonds 24
dotmatics
mol io
 22 24  0  0  0  0  0  0  0  0999 V2000
    5.2087    2.5647    0.0000 C   0  0  0  0  0  0  0  0  0  0  0  0
    4.4925    2.1512    0.0000 C   0  0  0  0  0  0  0  0  0  0  0  0
    3.7763    2.5647    0.0000 O   0  0  0  0  0  0  0  0  0  0  0  0
    4.4925    1.3242    0.0000 N   0  0  0  0  0  0  0  0  0  0  0  0
    5.2087    0.9107    0.0000 C   0  0  0  0  0  0  0  0  0  0  0  0
    5.2087    0.0837    0.0000 C   0  0  0  0  0  0  0  0  0  0  0  0
    4.4925   -0.3298    0.0000 N   0  0  0  0  0  0  0  0  0  0  0  0
    4.4925   -1.1568    0.0000 C   0  0  0  0  0  0  0  0  0  0  0  0
    3.7763   -1.5703    0.0000 C   0  0  0  0  0  0  0  0  0  0  0  0
    3.6898   -2.3928    0.0000 C   0  0  0  0  0  0  0  0  0  0  0  0
    2.8809   -2.5647    0.0000 O   0  0  0  0  0  0  0  0  0  0  0  0
    2.4674   -1.8485    0.0000 C   0  0  0  0  0  0  0  0  0  0  0  0
    1.6449   -1.7621    0.0000 C   0  0  0  0  0  0  0  0  0  0  0  0
    1.1588   -2.4311    0.0000 C   0  0  0  0  0  0  0  0  0  0  0  0
    0.3364   -2.3447    0.0000 C   0  0  0  0  0  0  0  0  0  0  0  0
    0.0000   -1.5892    0.0000 C   0  0  0  0  0  0  0  0  0  0  0  0
    0.4861   -0.9201    0.0000 C   0  0  0  0  0  0  0  0  0  0  0  0
    1.3086   -1.0066    0.0000 C   0  0  0  0  0  0  0  0  0  0  0  0
    1.7947   -0.3375    0.0000 F   0  0  0  0  0  0  0  0  0  0  0  0
    3.0208   -1.2339    0.0000 N   0  0  0  0  0  0  0  0  0  0  0  0
    3.7763    0.0837    0.0000 C   0  0  0  0  0  0  0  0  0  0  0  0
    3.7763    0.9107    0.0000 C   0  0  0  0  0  0  0  0  0  0  0  0
  1  2  1  0  0  0
  2  3  2  0  0  0
  2  4  1  0  0  0
  4 22  1  0  0  0
  4  5  1  0  0  0
  5  6  1  0  0  0
  6  7  1  0  0  0
  7  8  1  0  0  0
  8  9  1  0  0  0
  9 20  1  0  0  0
  9 10  2  0  0  0
 10 11  1  0  0  0
 11 12  1  0  0  0
 12 13  1  0  0  0
 13 18  1  0  0  0
 13 14  2  0  0  0
 14 15  1  0  0  0
 15 16  2  0  0  0
 16 17  1  0  0  0
 17 18  2  0  0  0
 18 19  1  0  0  0
 12 20  2  0  0  0
  7 21  1  0  0  0
 21 22  1  0  0  0
M  END
>  <Entry>
587

>  <title>
8-3543

>  <rigid docking scores>
-16.0139

>  <InChIKey>
DBYXEGLTTIYJGQ-UHFFFAOYSA-N

$$$$
atoms 21 bonds 23
dotmatics
mol io
 21 23  0  0  0  0  0  0  0  0999 V2000
    5.2554    2.8710    0.0000 C   0  0  0  0  0  0  0  0  0  0  0  0
    5.2554    2.0440    0.0000 N   0  0  0  0  0  0  0  0  0  0  0  0
    5.9716    1.6305    0.0000 C   0  0  0  0  0  0  0  0  0  0  0  0
    5.9716    0.8035    0.0000 C   0  0  0  0  0  0  0  0  0  0  0  0
    5.2554    0.3900    0.0000 O   0  0  0  0  0  0  0  0  0  0  0  0
    4.5392    0.8035    0.0000 C   0  0  0  0  0  0  0  0  0  0  0  0
    3.8230    0.3900    0.0000 C   0  0  0  0  0  0  0  0  0  0  0  0
    3.8230   -0.4370    0.0000 O   0  0  0  0  0  0  0  0  0  0  0  0
    3.1068    0.8035    0.0000 N   0  0  0  0  0  0  0  0  0  0  0  0
    2.3906    0.3900    0.0000 C   0  0  0  0  0  0  0  0  0  0  0  0
    2.3041   -0.4325    0.0000 N   0  0  0  0  0  0  0  0  0  0  0  0
    1.4952   -0.6045    0.0000 C   0  0  0  0  0  0  0  0  0  0  0  0
    1.1588   -1.3600    0.0000 C   0  0  0  0  0  0  0  0  0  0  0  0
    1.6449   -2.0290    0.0000 C   0  0  0  0  0  0  0  0  0  0  0  0
    1.3086   -2.7845    0.0000 C   0  0  0  0  0  0  0  0  0  0  0  0
    0.4861   -2.8710    0.0000 C   0  0  0  0  0  0  0  0  0  0  0  0
    0.0000   -2.2019    0.0000 C   0  0  0  0  0  0  0  0  0  0  0  0
    0.3364   -1.4464    0.0000 C   0  0  0  0  0  0  0  0  0  0  0  0
    1.0817    0.1117    0.0000 C   0  0  0  0  0  0  0  0  0  0  0  0
    1.6351    0.7263    0.0000 S   0  0  0  0  0  0  0  0  0  0  0  0
    4.5392    1.6305    0.0000 C   0  0  0  0  0  0  0  0  0  0  0  0
  1  2  1  0  0  0
  2 21  1  0  0  0
  2  3  1  0  0  0
  3  4  1  0  0  0
  4  5  1  0  0  0
  5  6  1  0  0  0
  6  7  1  0  0  0
  7  8  2  0  0  0
  7  9  1  0  0  0
  9 10  1  0  0  0
 10 20  1  0  0  0
 10 11  2  0  0  0
 11 12  1  0  0  0
 12 13  1  0  0  0
 13 18  1  0  0  0
 13 14  2  0  0  0
 14 15  1  0  0  0
 15 16  2  0  0  0
 16 17  1  0  0  0
 17 18  2  0  0  0
 12 19  2  0  0  0
 19 20  1  0  0  0
  6 21  1  0  0  0
M  END
>  <Entry>
588

>  <title>
1-7560

>  <rigid docking scores>
-18.9648

>  <InChIKey>
SHHWERWLIFGVNF-UHFFFAOYSA-N

>  <Mcule>
MCULE-5980249793

$$$$
atoms 21 bonds 23
dotmatics
mol io
 21 23  0  0  0  0  0  0  0  0999 V2000
    6.6222   -1.7905    0.0000 C   0  0  0  0  0  0  0  0  0  0  0  0
    6.2087   -1.0743    0.0000 N   0  0  0  0  0  0  0  0  0  0  0  0
    5.3817   -1.0743    0.0000 C   0  0  0  0  0  0  0  0  0  0  0  0
    4.9682   -0.3581    0.0000 C   0  0  0  0  0  0  0  0  0  0  0  0
    5.3817    0.3581    0.0000 N   0  0  0  0  0  0  0  0  0  0  0  0
    4.9682    1.0743    0.0000 C   0  0  0  0  0  0  0  0  0  0  0  0
    5.3817    1.7905    0.0000 O   0  0  0  0  0  0  0  0  0  0  0  0
    4.1412    1.0743    0.0000 C   0  0  0  0  0  0  0  0  0  0  0  0
    3.7271    0.3585    0.0000 C   0  0  0  0  0  0  0  0  0  0  0  0
    2.8989    0.3585    0.0000 C   0  0  0  0  0  0  0  0  0  0  0  0
    2.4847    1.0743    0.0000 C   0  0  0  0  0  0  0  0  0  0  0  0
    1.6565    1.0743    0.0000 C   0  0  0  0  0  0  0  0  0  0  0  0
    1.2424    0.3585    0.0000 C   0  0  0  0  0  0  0  0  0  0  0  0
    0.4141    0.3585    0.0000 C   0  0  0  0  0  0  0  0  0  0  0  0
    0.0000    1.0743    0.0000 C   0  0  0  0  0  0  0  0  0  0  0  0
    0.4141    1.7901    0.0000 C   0  0  0  0  0  0  0  0  0  0  0  0
    1.2424    1.7901    0.0000 C   0  0  0  0  0  0  0  0  0  0  0  0
    2.8989    1.7901    0.0000 N   0  0  0  0  0  0  0  0  0  0  0  0
    3.7271    1.7901    0.0000 C   0  0  0  0  0  0  0  0  0  0  0  0
    6.2087    0.3581    0.0000 C   0  0  0  0  0  0  0  0  0  0  0  0
    6.6222   -0.3581    0.0000 C   0  0  0  0  0  0  0  0  0  0  0  0
  1  2  1  0  0  0
  2 21  1  0  0  0
  2  3  1  0  0  0
  3  4  1  0  0  0
  4  5  1  0  0  0
  5  6  1  0  0  0
  6  7  2  0  0  0
  6  8  1  0  0  0
  8 19  1  0  0  0
  8  9  2  0  0  0
  9 10  1  0  0  0
 10 11  2  0  0  0
 11 12  1  0  0  0
 12 17  1  0  0  0
 12 13  2  0  0  0
 13 14  1  0  0  0
 14 15  2  0  0  0
 15 16  1  0  0  0
 16 17  2  0  0  0
 11 18  1  0  0  0
 18 19  2  0  0  0
  5 20  1  0  0  0
 20 21  1  0  0  0
M  END
>  <Entry>
589

>  <title>
1-7568

>  <rigid docking scores>
-15.4481

>  <InChIKey>
VCHHLEVZHGBGJN-UHFFFAOYSA-N

>  <Pubchem>
110683633

$$$$
atoms 23 bonds 26
dotmatics
mol io
 23 26  0  0  0  0  0  0  0  0999 V2000
    7.8627    1.1297    0.0000 O   0  0  0  0  0  0  0  0  0  0  0  0
    7.4492    0.4135    0.0000 C   0  0  0  0  0  0  0  0  0  0  0  0
    7.8627   -0.3027    0.0000 C   0  0  0  0  0  0  0  0  0  0  0  0
    8.5789   -0.7162    0.0000 C   0  0  0  0  0  0  0  0  0  0  0  0
    7.8627   -1.1297    0.0000 C   0  0  0  0  0  0  0  0  0  0  0  0
    6.6222    0.4135    0.0000 N   0  0  0  0  0  0  0  0  0  0  0  0
    6.2081   -0.3023    0.0000 C   0  0  0  0  0  0  0  0  0  0  0  0
    5.3799   -0.3023    0.0000 C   0  0  0  0  0  0  0  0  0  0  0  0
    4.9657    0.4135    0.0000 N   0  0  0  0  0  0  0  0  0  0  0  0
    4.1375    0.4135    0.0000 C   0  0  0  0  0  0  0  0  0  0  0  0
    3.7234   -0.3023    0.0000 C   0  0  0  0  0  0  0  0  0  0  0  0
    2.8951   -0.3023    0.0000 C   0  0  0  0  0  0  0  0  0  0  0  0
    2.4810    0.4135    0.0000 C   0  0  0  0  0  0  0  0  0  0  0  0
    1.6540    0.4135    0.0000 C   0  0  0  0  0  0  0  0  0  0  0  0
    1.2405   -0.3027    0.0000 C   0  0  0  0  0  0  0  0  0  0  0  0
    0.4135   -0.3027    0.0000 C   0  0  0  0  0  0  0  0  0  0  0  0
    0.0000    0.4135    0.0000 C   0  0  0  0  0  0  0  0  0  0  0  0
    0.4135    1.1297    0.0000 C   0  0  0  0  0  0  0  0  0  0  0  0
    1.2405    1.1297    0.0000 C   0  0  0  0  0  0  0  0  0  0  0  0
    2.8951    1.1293    0.0000 N   0  0  0  0  0  0  0  0  0  0  0  0
    3.7234    1.1293    0.0000 N   0  0  0  0  0  0  0  0  0  0  0  0
    5.3799    1.1293    0.0000 C   0  0  0  0  0  0  0  0  0  0  0  0
    6.2081    1.1293    0.0000 C   0  0  0  0  0  0  0  0  0  0  0  0
  1  2  2  0  0  0
  2  3  1  0  0  0
  3  5  1  0  0  0
  3  4  1  0  0  0
  4  5  1  0  0  0
  2  6  1  0  0  0
  6 23  1  0  0  0
  6  7  1  0  0  0
  7  8  1  0  0  0
  8  9  1  0  0  0
  9 10  1  0  0  0
 10 21  1  0  0  0
 10 11  2  0  0  0
 11 12  1  0  0  0
 12 13  2  0  0  0
 13 14  1  0  0  0
 14 19  1  0  0  0
 14 15  2  0  0  0
 15 16  1  0  0  0
 16 17  2  0  0  0
 17 18  1  0  0  0
 18 19  2  0  0  0
 13 20  1  0  0  0
 20 21  2  0  0  0
  9 22  1  0  0  0
 22 23  1  0  0  0
M  END
>  <Entry>
590

>  <title>
1-7574

>  <rigid docking scores>
-16.087

>  <InChIKey>
LDSCNIKKJNXLTO-UHFFFAOYSA-N

>  <Pubchem>
25836072

$$$$
atoms 24 bonds 27
dotmatics
mol io
 24 27  0  0  0  0  0  0  0  0999 V2000
    2.3655   -3.3297    0.0000 C   0  0  0  0  0  0  0  0  0  0  0  0
    1.8746   -2.6642    0.0000 N   0  0  0  0  0  0  0  0  0  0  0  0
    1.0476   -2.6701    0.0000 C   0  0  0  0  0  0  0  0  0  0  0  0
    0.7865   -1.8854    0.0000 C   0  0  0  0  0  0  0  0  0  0  0  0
    1.4520   -1.3945    0.0000 C   0  0  0  0  0  0  0  0  0  0  0  0
    1.4461   -0.5675    0.0000 N   0  0  0  0  0  0  0  0  0  0  0  0
    2.1594   -0.1489    0.0000 C   0  0  0  0  0  0  0  0  0  0  0  0
    2.8785   -0.5573    0.0000 O   0  0  0  0  0  0  0  0  0  0  0  0
    2.1534    0.6780    0.0000 C   0  0  0  0  0  0  0  0  0  0  0  0
    2.8693    1.0922    0.0000 C   0  0  0  0  0  0  0  0  0  0  0  0
    2.8693    1.9204    0.0000 C   0  0  0  0  0  0  0  0  0  0  0  0
    3.5851    2.3345    0.0000 C   0  0  0  0  0  0  0  0  0  0  0  0
    3.6709    3.1571    0.0000 N   0  0  0  0  0  0  0  0  0  0  0  0
    4.4796    3.3297    0.0000 C   0  0  0  0  0  0  0  0  0  0  0  0
    4.8938    2.6139    0.0000 C   0  0  0  0  0  0  0  0  0  0  0  0
    4.3409    1.9988    0.0000 O   0  0  0  0  0  0  0  0  0  0  0  0
    2.1534    2.3345    0.0000 N   0  0  0  0  0  0  0  0  0  0  0  0
    1.4317    1.9204    0.0000 C   0  0  0  0  0  0  0  0  0  0  0  0
    0.7158    2.3345    0.0000 C   0  0  0  0  0  0  0  0  0  0  0  0
    0.0000    1.9204    0.0000 C   0  0  0  0  0  0  0  0  0  0  0  0
    0.0000    1.0922    0.0000 C   0  0  0  0  0  0  0  0  0  0  0  0
    0.7158    0.6780    0.0000 C   0  0  0  0  0  0  0  0  0  0  0  0
    1.4317    1.0922    0.0000 C   0  0  0  0  0  0  0  0  0  0  0  0
    2.1245   -1.8758    0.0000 C   0  0  0  0  0  0  0  0  0  0  0  0
  1  2  1  0  0  0
  2 24  1  0  0  0
  2  3  1  0  0  0
  3  4  1  0  0  0
  4  5  1  0  0  0
  5  6  1  0  0  0
  6  7  1  0  0  0
  7  8  2  0  0  0
  7  9  1  0  0  0
  9 23  1  0  0  0
  9 10  2  0  0  0
 10 11  1  0  0  0
 11 12  1  0  0  0
 12 16  1  0  0  0
 12 13  2  0  0  0
 13 14  1  0  0  0
 14 15  2  0  0  0
 15 16  1  0  0  0
 11 17  2  0  0  0
 17 18  1  0  0  0
 18 23  1  0  0  0
 18 19  2  0  0  0
 19 20  1  0  0  0
 20 21  2  0  0  0
 21 22  1  0  0  0
 22 23  2  0  0  0
  5 24  1  0  0  0
M  END
>  <Entry>
591

>  <title>
8-4352

>  <rigid docking scores>
-21.0816

>  <InChIKey>
KQAFYTJKHHJJKP-UHFFFAOYSA-N

$$$$
atoms 21 bonds 23
dotmatics
mol io
 21 23  0  0  0  0  0  0  0  0999 V2000
    4.3398    3.0868    0.0000 C   0  0  0  0  0  0  0  0  0  0  0  0
    3.5316    2.9116    0.0000 N   0  0  0  0  0  0  0  0  0  0  0  0
    3.2792    2.1241    0.0000 C   0  0  0  0  0  0  0  0  0  0  0  0
    3.8350    1.5117    0.0000 O   0  0  0  0  0  0  0  0  0  0  0  0
    2.4709    1.9489    0.0000 C   0  0  0  0  0  0  0  0  0  0  0  0
    2.2185    1.1614    0.0000 N   0  0  0  0  0  0  0  0  0  0  0  0
    2.7096    0.4929    0.0000 C   0  0  0  0  0  0  0  0  0  0  0  0
    2.2185   -0.1757    0.0000 C   0  0  0  0  0  0  0  0  0  0  0  0
    2.4709   -0.9632    0.0000 C   0  0  0  0  0  0  0  0  0  0  0  0
    3.2564   -1.2219    0.0000 N   0  0  0  0  0  0  0  0  0  0  0  0
    3.2531   -2.0489    0.0000 C   0  0  0  0  0  0  0  0  0  0  0  0
    3.9202   -2.5376    0.0000 C   0  0  0  0  0  0  0  0  0  0  0  0
    2.4656   -2.3013    0.0000 C   0  0  0  0  0  0  0  0  0  0  0  0
    2.2069   -3.0868    0.0000 C   0  0  0  0  0  0  0  0  0  0  0  0
    1.9822   -1.6303    0.0000 O   0  0  0  0  0  0  0  0  0  0  0  0
    1.4317    0.0787    0.0000 C   0  0  0  0  0  0  0  0  0  0  0  0
    0.7158   -0.3354    0.0000 C   0  0  0  0  0  0  0  0  0  0  0  0
    0.0000    0.0787    0.0000 C   0  0  0  0  0  0  0  0  0  0  0  0
    0.0000    0.9070    0.0000 C   0  0  0  0  0  0  0  0  0  0  0  0
    0.7158    1.3211    0.0000 C   0  0  0  0  0  0  0  0  0  0  0  0
    1.4317    0.9070    0.0000 C   0  0  0  0  0  0  0  0  0  0  0  0
  1  2  1  0  0  0
  2  3  1  0  0  0
  3  4  2  0  0  0
  3  5  1  0  0  0
  5  6  1  0  0  0
  6 21  1  0  0  0
  6  7  1  0  0  0
  7  8  2  0  0  0
  8  9  1  0  0  0
  9 15  1  0  0  0
  9 10  2  0  0  0
 10 11  1  0  0  0
 11 12  1  0  0  0
 11 13  2  0  0  0
 13 14  1  0  0  0
 13 15  1  0  0  0
  8 16  1  0  0  0
 16 21  1  0  0  0
 16 17  2  0  0  0
 17 18  1  0  0  0
 18 19  2  0  0  0
 19 20  1  0  0  0
 20 21  2  0  0  0
M  END
>  <Entry>
592

>  <title>
8-4892

>  <rigid docking scores>
-17.5376

>  <InChIKey>
JPQHAOOVLMKQKP-UHFFFAOYSA-N

$$$$
atoms 24 bonds 27
dotmatics
mol io
 24 27  0  0  0  0  0  0  0  0999 V2000
    0.0000    0.7087    0.0000 C   0  0  0  0  0  0  0  0  0  0  0  0
    0.7158    1.1228    0.0000 C   0  0  0  0  0  0  0  0  0  0  0  0
    0.7158    1.9511    0.0000 C   0  0  0  0  0  0  0  0  0  0  0  0
    1.4317    2.3652    0.0000 C   0  0  0  0  0  0  0  0  0  0  0  0
    2.1475    1.9511    0.0000 C   0  0  0  0  0  0  0  0  0  0  0  0
    2.8693    2.3652    0.0000 N   0  0  0  0  0  0  0  0  0  0  0  0
    3.5851    1.9511    0.0000 C   0  0  0  0  0  0  0  0  0  0  0  0
    4.3010    2.3652    0.0000 C   0  0  0  0  0  0  0  0  0  0  0  0
    4.3867    3.1877    0.0000 C   0  0  0  0  0  0  0  0  0  0  0  0
    5.1955    3.3604    0.0000 C   0  0  0  0  0  0  0  0  0  0  0  0
    5.6096    2.6445    0.0000 C   0  0  0  0  0  0  0  0  0  0  0  0
    5.0568    2.0295    0.0000 O   0  0  0  0  0  0  0  0  0  0  0  0
    3.5851    1.1228    0.0000 C   0  0  0  0  0  0  0  0  0  0  0  0
    2.8693    0.7087    0.0000 C   0  0  0  0  0  0  0  0  0  0  0  0
    2.8752   -0.1183    0.0000 C   0  0  0  0  0  0  0  0  0  0  0  0
    3.5943   -0.5267    0.0000 O   0  0  0  0  0  0  0  0  0  0  0  0
    2.1620   -0.5369    0.0000 N   0  0  0  0  0  0  0  0  0  0  0  0
    2.1679   -1.3639    0.0000 C   0  0  0  0  0  0  0  0  0  0  0  0
    2.7568   -1.9445    0.0000 C   0  0  0  0  0  0  0  0  0  0  0  0
    2.1762   -2.5334    0.0000 N   0  0  0  0  0  0  0  0  0  0  0  0
    2.1821   -3.3604    0.0000 C   0  0  0  0  0  0  0  0  0  0  0  0
    1.5873   -1.9528    0.0000 C   0  0  0  0  0  0  0  0  0  0  0  0
    2.1475    1.1228    0.0000 C   0  0  0  0  0  0  0  0  0  0  0  0
    1.4317    0.7087    0.0000 C   0  0  0  0  0  0  0  0  0  0  0  0
  1  2  1  0  0  0
  2 24  1  0  0  0
  2  3  2  0  0  0
  3  4  1  0  0  0
  4  5  2  0  0  0
  5 23  1  0  0  0
  5  6  1  0  0  0
  6  7  2  0  0  0
  7  8  1  0  0  0
  8 12  1  0  0  0
  8  9  2  0  0  0
  9 10  1  0  0  0
 10 11  2  0  0  0
 11 12  1  0  0  0
  7 13  1  0  0  0
 13 14  2  0  0  0
 14 15  1  0  0  0
 15 16  2  0  0  0
 15 17  1  0  0  0
 17 18  1  0  0  0
 18 22  1  0  0  0
 18 19  1  0  0  0
 19 20  1  0  0  0
 20 21  1  0  0  0
 20 22  1  0  0  0
 14 23  1  0  0  0
 23 24  2  0  0  0
M  END
>  <Entry>
593

>  <title>
8-4918

>  <rigid docking scores>
-17.5089

>  <InChIKey>
SOFFGXMWJDVESW-UHFFFAOYSA-N

$$$$
atoms 20 bonds 22
dotmatics
mol io
 20 22  0  0  0  0  0  0  0  0999 V2000
    6.6411    1.7377    0.0000 C   0  0  0  0  0  0  0  0  0  0  0  0
    6.6411    0.9107    0.0000 C   0  0  0  0  0  0  0  0  0  0  0  0
    7.3573    0.4972    0.0000 C   0  0  0  0  0  0  0  0  0  0  0  0
    7.3573   -0.3298    0.0000 C   0  0  0  0  0  0  0  0  0  0  0  0
    6.6411   -0.7433    0.0000 N   0  0  0  0  0  0  0  0  0  0  0  0
    5.9249   -0.3298    0.0000 C   0  0  0  0  0  0  0  0  0  0  0  0
    5.2087   -0.7433    0.0000 N   0  0  0  0  0  0  0  0  0  0  0  0
    4.4925   -0.3298    0.0000 C   0  0  0  0  0  0  0  0  0  0  0  0
    3.7763   -0.7433    0.0000 C   0  0  0  0  0  0  0  0  0  0  0  0
    3.6898   -1.5658    0.0000 C   0  0  0  0  0  0  0  0  0  0  0  0
    2.8809   -1.7377    0.0000 S   0  0  0  0  0  0  0  0  0  0  0  0
    2.4674   -1.0215    0.0000 C   0  0  0  0  0  0  0  0  0  0  0  0
    1.6449   -0.9351    0.0000 C   0  0  0  0  0  0  0  0  0  0  0  0
    1.1588   -1.6041    0.0000 C   0  0  0  0  0  0  0  0  0  0  0  0
    0.3364   -1.5177    0.0000 C   0  0  0  0  0  0  0  0  0  0  0  0
    0.0000   -0.7622    0.0000 C   0  0  0  0  0  0  0  0  0  0  0  0
    0.4861   -0.0931    0.0000 N   0  0  0  0  0  0  0  0  0  0  0  0
    1.3086   -0.1796    0.0000 C   0  0  0  0  0  0  0  0  0  0  0  0
    3.0208   -0.4069    0.0000 N   0  0  0  0  0  0  0  0  0  0  0  0
    5.9249    0.4972    0.0000 N   0  0  0  0  0  0  0  0  0  0  0  0
  1  2  1  0  0  0
  2 20  1  0  0  0
  2  3  2  0  0  0
  3  4  1  0  0  0
  4  5  2  0  0  0
  5  6  1  0  0  0
  6  7  1  0  0  0
  7  8  1  0  0  0
  8  9  1  0  0  0
  9 19  1  0  0  0
  9 10  2  0  0  0
 10 11  1  0  0  0
 11 12  1  0  0  0
 12 13  1  0  0  0
 13 18  1  0  0  0
 13 14  2  0  0  0
 14 15  1  0  0  0
 15 16  2  0  0  0
 16 17  1  0  0  0
 17 18  2  0  0  0
 12 19  2  0  0  0
  6 20  2  0  0  0
M  END
>  <Entry>
594

>  <title>
8-5816

>  <rigid docking scores>
-16.8551

>  <InChIKey>
BMHHMBLMCASRTH-UHFFFAOYSA-N

$$$$
atoms 22 bonds 24
dotmatics
mol io
 22 24  0  0  0  0  0  0  0  0999 V2000
    0.7004   -3.8197    0.0000 C   0  0  0  0  0  0  0  0  0  0  0  0
    1.1877   -3.1515    0.0000 N   0  0  0  0  0  0  0  0  0  0  0  0
    2.0100   -3.2395    0.0000 C   0  0  0  0  0  0  0  0  0  0  0  0
    2.4973   -2.5713    0.0000 C   0  0  0  0  0  0  0  0  0  0  0  0
    2.1623   -1.8152    0.0000 O   0  0  0  0  0  0  0  0  0  0  0  0
    1.3400   -1.7272    0.0000 C   0  0  0  0  0  0  0  0  0  0  0  0
    0.5177   -1.6393    0.0000 C   0  0  0  0  0  0  0  0  0  0  0  0
    1.0050   -0.9711    0.0000 C   0  0  0  0  0  0  0  0  0  0  0  0
    0.1827   -0.8832    0.0000 O   0  0  0  0  0  0  0  0  0  0  0  0
    1.4923   -0.3029    0.0000 N   0  0  0  0  0  0  0  0  0  0  0  0
    1.1573    0.4532    0.0000 C   0  0  0  0  0  0  0  0  0  0  0  0
    0.3350    0.5411    0.0000 C   0  0  0  0  0  0  0  0  0  0  0  0
    0.0000    1.2972    0.0000 C   0  0  0  0  0  0  0  0  0  0  0  0
    0.4873    1.9654    0.0000 C   0  0  0  0  0  0  0  0  0  0  0  0
    1.3096    1.8775    0.0000 C   0  0  0  0  0  0  0  0  0  0  0  0
    1.7969    2.5456    0.0000 C   0  0  0  0  0  0  0  0  0  0  0  0
    2.6227    2.5456    0.0000 C   0  0  0  0  0  0  0  0  0  0  0  0
    2.8763    3.3301    0.0000 C   0  0  0  0  0  0  0  0  0  0  0  0
    2.2098    3.8197    0.0000 N   0  0  0  0  0  0  0  0  0  0  0  0
    1.5433    3.3301    0.0000 N   0  0  0  0  0  0  0  0  0  0  0  0
    1.6446    1.1213    0.0000 C   0  0  0  0  0  0  0  0  0  0  0  0
    0.8527   -2.3954    0.0000 C   0  0  0  0  0  0  0  0  0  0  0  0
  1  2  1  0  0  0
  2 22  1  0  0  0
  2  3  1  0  0  0
  3  4  1  0  0  0
  4  5  1  0  0  0
  5  6  1  0  0  0
  6  7  1  0  0  0
  6  8  1  0  0  0
  8  9  2  0  0  0
  8 10  1  0  0  0
 10 11  1  0  0  0
 11 21  1  0  0  0
 11 12  2  0  0  0
 12 13  1  0  0  0
 13 14  2  0  0  0
 14 15  1  0  0  0
 15 16  1  0  0  0
 16 20  2  0  0  0
 16 17  1  0  0  0
 17 18  2  0  0  0
 18 19  1  0  0  0
 19 20  1  0  0  0
 15 21  2  0  0  0
  6 22  1  0  0  0
M  END
>  <Entry>
595

>  <title>
1-7761

>  <rigid docking scores>
-15.5509

>  <InChIKey>
JGRCPSGDBHHNRG-UHFFFAOYSA-N

$$$$
atoms 24 bonds 27
dotmatics
mol io
 24 27  0  0  0  0  0  0  0  0999 V2000
    2.1771   -2.4828    0.0000 O   0  0  0  0  0  0  0  0  0  0  0  0
    2.1712   -1.6559    0.0000 C   0  0  0  0  0  0  0  0  0  0  0  0
    1.4520   -1.2475    0.0000 C   0  0  0  0  0  0  0  0  0  0  0  0
    1.4461   -0.4205    0.0000 C   0  0  0  0  0  0  0  0  0  0  0  0
    2.1594   -0.0019    0.0000 C   0  0  0  0  0  0  0  0  0  0  0  0
    2.1534    0.8251    0.0000 C   0  0  0  0  0  0  0  0  0  0  0  0
    2.8693    1.2392    0.0000 N   0  0  0  0  0  0  0  0  0  0  0  0
    2.8693    2.0675    0.0000 C   0  0  0  0  0  0  0  0  0  0  0  0
    3.5851    2.4816    0.0000 C   0  0  0  0  0  0  0  0  0  0  0  0
    4.3017    2.0687    0.0000 N   0  0  0  0  0  0  0  0  0  0  0  0
    5.0175    2.4828    0.0000 C   0  0  0  0  0  0  0  0  0  0  0  0
    5.7341    2.0700    0.0000 C   0  0  0  0  0  0  0  0  0  0  0  0
    5.7348    1.2430    0.0000 C   0  0  0  0  0  0  0  0  0  0  0  0
    5.0190    0.8288    0.0000 C   0  0  0  0  0  0  0  0  0  0  0  0
    4.3024    1.2417    0.0000 C   0  0  0  0  0  0  0  0  0  0  0  0
    2.1534    2.4816    0.0000 N   0  0  0  0  0  0  0  0  0  0  0  0
    1.4317    2.0675    0.0000 C   0  0  0  0  0  0  0  0  0  0  0  0
    0.7158    2.4816    0.0000 C   0  0  0  0  0  0  0  0  0  0  0  0
    0.0000    2.0675    0.0000 C   0  0  0  0  0  0  0  0  0  0  0  0
    0.0000    1.2392    0.0000 C   0  0  0  0  0  0  0  0  0  0  0  0
    0.7158    0.8251    0.0000 C   0  0  0  0  0  0  0  0  0  0  0  0
    1.4317    1.2392    0.0000 C   0  0  0  0  0  0  0  0  0  0  0  0
    2.8785   -0.4103    0.0000 C   0  0  0  0  0  0  0  0  0  0  0  0
    2.8844   -1.2372    0.0000 N   0  0  0  0  0  0  0  0  0  0  0  0
  1  2  2  0  0  0
  2 24  1  0  0  0
  2  3  1  0  0  0
  3  4  2  0  0  0
  4  5  1  0  0  0
  5  6  1  0  0  0
  6 22  1  0  0  0
  6  7  2  0  0  0
  7  8  1  0  0  0
  8  9  1  0  0  0
  9 10  1  0  0  0
 10 15  1  0  0  0
 10 11  1  0  0  0
 11 12  1  0  0  0
 12 13  1  0  0  0
 13 14  1  0  0  0
 14 15  1  0  0  0
  8 16  2  0  0  0
 16 17  1  0  0  0
 17 22  1  0  0  0
 17 18  2  0  0  0
 18 19  1  0  0  0
 19 20  2  0  0  0
 20 21  1  0  0  0
 21 22  2  0  0  0
  5 23  2  0  0  0
 23 24  1  0  0  0
M  END
>  <Entry>
596

>  <title>
8-6772

>  <rigid docking scores>
-16.7138

>  <InChIKey>
HSOANXOGAOYJHT-UHFFFAOYSA-N

$$$$
atoms 24 bonds 27
dotmatics
mol io
 24 27  0  0  0  0  0  0  0  0999 V2000
    2.3655   -3.3297    0.0000 C   0  0  0  0  0  0  0  0  0  0  0  0
    1.8746   -2.6642    0.0000 N   0  0  0  0  0  0  0  0  0  0  0  0
    1.0476   -2.6701    0.0000 C   0  0  0  0  0  0  0  0  0  0  0  0
    0.7865   -1.8854    0.0000 C   0  0  0  0  0  0  0  0  0  0  0  0
    1.4520   -1.3945    0.0000 C   0  0  0  0  0  0  0  0  0  0  0  0
    1.4461   -0.5675    0.0000 N   0  0  0  0  0  0  0  0  0  0  0  0
    2.1594   -0.1489    0.0000 C   0  0  0  0  0  0  0  0  0  0  0  0
    2.8785   -0.5573    0.0000 O   0  0  0  0  0  0  0  0  0  0  0  0
    2.1534    0.6780    0.0000 C   0  0  0  0  0  0  0  0  0  0  0  0
    2.8693    1.0922    0.0000 C   0  0  0  0  0  0  0  0  0  0  0  0
    2.8693    1.9204    0.0000 C   0  0  0  0  0  0  0  0  0  0  0  0
    3.5851    2.3345    0.0000 C   0  0  0  0  0  0  0  0  0  0  0  0
    3.6709    3.1571    0.0000 C   0  0  0  0  0  0  0  0  0  0  0  0
    4.4796    3.3297    0.0000 C   0  0  0  0  0  0  0  0  0  0  0  0
    4.8938    2.6139    0.0000 C   0  0  0  0  0  0  0  0  0  0  0  0
    4.3409    1.9988    0.0000 O   0  0  0  0  0  0  0  0  0  0  0  0
    2.1534    2.3345    0.0000 N   0  0  0  0  0  0  0  0  0  0  0  0
    1.4317    1.9204    0.0000 C   0  0  0  0  0  0  0  0  0  0  0  0
    0.7158    2.3345    0.0000 C   0  0  0  0  0  0  0  0  0  0  0  0
    0.0000    1.9204    0.0000 C   0  0  0  0  0  0  0  0  0  0  0  0
    0.0000    1.0922    0.0000 C   0  0  0  0  0  0  0  0  0  0  0  0
    0.7158    0.6780    0.0000 C   0  0  0  0  0  0  0  0  0  0  0  0
    1.4317    1.0922    0.0000 C   0  0  0  0  0  0  0  0  0  0  0  0
    2.1245   -1.8758    0.0000 C   0  0  0  0  0  0  0  0  0  0  0  0
  1  2  1  0  0  0
  2 24  1  0  0  0
  2  3  1  0  0  0
  3  4  1  0  0  0
  4  5  1  0  0  0
  5  6  1  0  0  0
  6  7  1  0  0  0
  7  8  2  0  0  0
  7  9  1  0  0  0
  9 23  1  0  0  0
  9 10  2  0  0  0
 10 11  1  0  0  0
 11 12  1  0  0  0
 12 16  1  0  0  0
 12 13  2  0  0  0
 13 14  1  0  0  0
 14 15  2  0  0  0
 15 16  1  0  0  0
 11 17  2  0  0  0
 17 18  1  0  0  0
 18 23  1  0  0  0
 18 19  2  0  0  0
 19 20  1  0  0  0
 20 21  2  0  0  0
 21 22  1  0  0  0
 22 23  2  0  0  0
  5 24  1  0  0  0
M  END
>  <Entry>
597

>  <title>
8-7107

>  <rigid docking scores>
-21.1076

>  <InChIKey>
SDYNBCPYRXRIRU-UHFFFAOYSA-N

$$$$
atoms 24 bonds 27
dotmatics
mol io
 24 27  0  0  0  0  0  0  0  0999 V2000
    2.3655   -3.3297    0.0000 C   0  0  0  0  0  0  0  0  0  0  0  0
    1.8746   -2.6642    0.0000 N   0  0  0  0  0  0  0  0  0  0  0  0
    1.0476   -2.6701    0.0000 C   0  0  0  0  0  0  0  0  0  0  0  0
    0.7865   -1.8854    0.0000 C   0  0  0  0  0  0  0  0  0  0  0  0
    1.4520   -1.3945    0.0000 C   0  0  0  0  0  0  0  0  0  0  0  0
    1.4461   -0.5675    0.0000 N   0  0  0  0  0  0  0  0  0  0  0  0
    2.1594   -0.1489    0.0000 C   0  0  0  0  0  0  0  0  0  0  0  0
    2.8785   -0.5573    0.0000 O   0  0  0  0  0  0  0  0  0  0  0  0
    2.1534    0.6780    0.0000 C   0  0  0  0  0  0  0  0  0  0  0  0
    2.8693    1.0922    0.0000 C   0  0  0  0  0  0  0  0  0  0  0  0
    2.8693    1.9204    0.0000 C   0  0  0  0  0  0  0  0  0  0  0  0
    3.5851    2.3345    0.0000 C   0  0  0  0  0  0  0  0  0  0  0  0
    3.6709    3.1571    0.0000 C   0  0  0  0  0  0  0  0  0  0  0  0
    4.4796    3.3297    0.0000 C   0  0  0  0  0  0  0  0  0  0  0  0
    4.8938    2.6139    0.0000 O   0  0  0  0  0  0  0  0  0  0  0  0
    4.3409    1.9988    0.0000 N   0  0  0  0  0  0  0  0  0  0  0  0
    2.1534    2.3345    0.0000 N   0  0  0  0  0  0  0  0  0  0  0  0
    1.4317    1.9204    0.0000 C   0  0  0  0  0  0  0  0  0  0  0  0
    0.7158    2.3345    0.0000 C   0  0  0  0  0  0  0  0  0  0  0  0
    0.0000    1.9204    0.0000 C   0  0  0  0  0  0  0  0  0  0  0  0
    0.0000    1.0922    0.0000 C   0  0  0  0  0  0  0  0  0  0  0  0
    0.7158    0.6780    0.0000 C   0  0  0  0  0  0  0  0  0  0  0  0
    1.4317    1.0922    0.0000 C   0  0  0  0  0  0  0  0  0  0  0  0
    2.1245   -1.8758    0.0000 C   0  0  0  0  0  0  0  0  0  0  0  0
  1  2  1  0  0  0
  2 24  1  0  0  0
  2  3  1  0  0  0
  3  4  1  0  0  0
  4  5  1  0  0  0
  5  6  1  0  0  0
  6  7  1  0  0  0
  7  8  2  0  0  0
  7  9  1  0  0  0
  9 23  1  0  0  0
  9 10  2  0  0  0
 10 11  1  0  0  0
 11 12  1  0  0  0
 12 16  2  0  0  0
 12 13  1  0  0  0
 13 14  2  0  0  0
 14 15  1  0  0  0
 15 16  1  0  0  0
 11 17  2  0  0  0
 17 18  1  0  0  0
 18 23  1  0  0  0
 18 19  2  0  0  0
 19 20  1  0  0  0
 20 21  2  0  0  0
 21 22  1  0  0  0
 22 23  2  0  0  0
  5 24  1  0  0  0
M  END
>  <Entry>
598

>  <title>
8-7131

>  <rigid docking scores>
-19.9035

>  <InChIKey>
XCNRZRPQWOKGTO-UHFFFAOYSA-N

$$$$
atoms 24 bonds 27
dotmatics
mol io
 24 27  0  0  0  0  0  0  0  0999 V2000
    2.2082    2.6473    0.0000 C   0  0  0  0  0  0  0  0  0  0  0  0
    2.2082    1.8203    0.0000 C   0  0  0  0  0  0  0  0  0  0  0  0
    2.8772    1.3342    0.0000 N   0  0  0  0  0  0  0  0  0  0  0  0
    2.6217    0.5476    0.0000 O   0  0  0  0  0  0  0  0  0  0  0  0
    1.7947    0.5476    0.0000 C   0  0  0  0  0  0  0  0  0  0  0  0
    1.3086   -0.1214    0.0000 C   0  0  0  0  0  0  0  0  0  0  0  0
    0.4861   -0.0350    0.0000 C   0  0  0  0  0  0  0  0  0  0  0  0
    0.0000   -0.7040    0.0000 C   0  0  0  0  0  0  0  0  0  0  0  0
    0.3364   -1.4595    0.0000 C   0  0  0  0  0  0  0  0  0  0  0  0
    1.1588   -1.5460    0.0000 C   0  0  0  0  0  0  0  0  0  0  0  0
    1.6449   -0.8769    0.0000 C   0  0  0  0  0  0  0  0  0  0  0  0
    2.4674   -0.9634    0.0000 N   0  0  0  0  0  0  0  0  0  0  0  0
    2.8038   -1.7189    0.0000 C   0  0  0  0  0  0  0  0  0  0  0  0
    2.3177   -2.3879    0.0000 O   0  0  0  0  0  0  0  0  0  0  0  0
    3.6262   -1.8053    0.0000 C   0  0  0  0  0  0  0  0  0  0  0  0
    4.1123   -1.1363    0.0000 C   0  0  0  0  0  0  0  0  0  0  0  0
    4.9348   -1.2227    0.0000 C   0  0  0  0  0  0  0  0  0  0  0  0
    5.2712   -1.9782    0.0000 N   0  0  0  0  0  0  0  0  0  0  0  0
    6.0937   -2.0646    0.0000 C   0  0  0  0  0  0  0  0  0  0  0  0
    6.8492   -1.7283    0.0000 C   0  0  0  0  0  0  0  0  0  0  0  0
    6.7627   -2.5507    0.0000 C   0  0  0  0  0  0  0  0  0  0  0  0
    4.7851   -2.6473    0.0000 C   0  0  0  0  0  0  0  0  0  0  0  0
    3.9626   -2.5608    0.0000 C   0  0  0  0  0  0  0  0  0  0  0  0
    1.5391    1.3342    0.0000 N   0  0  0  0  0  0  0  0  0  0  0  0
  1  2  1  0  0  0
  2 24  1  0  0  0
  2  3  2  0  0  0
  3  4  1  0  0  0
  4  5  1  0  0  0
  5  6  1  0  0  0
  6 11  1  0  0  0
  6  7  2  0  0  0
  7  8  1  0  0  0
  8  9  2  0  0  0
  9 10  1  0  0  0
 10 11  2  0  0  0
 11 12  1  0  0  0
 12 13  1  0  0  0
 13 14  2  0  0  0
 13 15  1  0  0  0
 15 23  1  0  0  0
 15 16  1  0  0  0
 16 17  1  0  0  0
 17 18  1  0  0  0
 18 19  1  0  0  0
 19 21  1  0  0  0
 19 20  1  0  0  0
 20 21  1  0  0  0
 18 22  1  0  0  0
 22 23  1  0  0  0
  5 24  2  0  0  0
M  END
>  <Entry>
599

>  <title>
1-7811

>  <rigid docking scores>
-16.5163

>  <InChIKey>
KVUVJHFJYJXMJY-UHFFFAOYSA-N

$$$$
atoms 22 bonds 24
dotmatics
mol io
 22 24  0  0  0  0  0  0  0  0999 V2000
    7.0385    1.1568    0.0000 C   0  0  0  0  0  0  0  0  0  0  0  0
    7.0385    0.3298    0.0000 C   0  0  0  0  0  0  0  0  0  0  0  0
    7.7547   -0.0837    0.0000 C   0  0  0  0  0  0  0  0  0  0  0  0
    7.7547   -0.9107    0.0000 C   0  0  0  0  0  0  0  0  0  0  0  0
    7.0385   -1.3242    0.0000 C   0  0  0  0  0  0  0  0  0  0  0  0
    6.3223   -0.9107    0.0000 C   0  0  0  0  0  0  0  0  0  0  0  0
    6.3223   -0.0837    0.0000 N   0  0  0  0  0  0  0  0  0  0  0  0
    5.6061    0.3298    0.0000 C   0  0  0  0  0  0  0  0  0  0  0  0
    4.8899   -0.0837    0.0000 C   0  0  0  0  0  0  0  0  0  0  0  0
    4.8899   -0.9107    0.0000 O   0  0  0  0  0  0  0  0  0  0  0  0
    4.1737    0.3298    0.0000 N   0  0  0  0  0  0  0  0  0  0  0  0
    3.4575   -0.0837    0.0000 C   0  0  0  0  0  0  0  0  0  0  0  0
    3.4575   -0.9107    0.0000 C   0  0  0  0  0  0  0  0  0  0  0  0
    2.7413   -1.3242    0.0000 C   0  0  0  0  0  0  0  0  0  0  0  0
    2.0251   -0.9107    0.0000 C   0  0  0  0  0  0  0  0  0  0  0  0
    2.0251   -0.0837    0.0000 C   0  0  0  0  0  0  0  0  0  0  0  0
    1.3089    0.3298    0.0000 C   0  0  0  0  0  0  0  0  0  0  0  0
    1.2224    1.1523    0.0000 N   0  0  0  0  0  0  0  0  0  0  0  0
    0.4135    1.3242    0.0000 C   0  0  0  0  0  0  0  0  0  0  0  0
    0.0000    0.6080    0.0000 O   0  0  0  0  0  0  0  0  0  0  0  0
    0.5534   -0.0066    0.0000 N   0  0  0  0  0  0  0  0  0  0  0  0
    2.7413    0.3298    0.0000 C   0  0  0  0  0  0  0  0  0  0  0  0
  1  2  1  0  0  0
  2  7  1  0  0  0
  2  3  1  0  0  0
  3  4  1  0  0  0
  4  5  1  0  0  0
  5  6  1  0  0  0
  6  7  1  0  0  0
  7  8  1  0  0  0
  8  9  1  0  0  0
  9 10  2  0  0  0
  9 11  1  0  0  0
 11 12  1  0  0  0
 12 22  1  0  0  0
 12 13  2  0  0  0
 13 14  1  0  0  0
 14 15  2  0  0  0
 15 16  1  0  0  0
 16 17  1  0  0  0
 17 21  2  0  0  0
 17 18  1  0  0  0
 18 19  2  0  0  0
 19 20  1  0  0  0
 20 21  1  0  0  0
 16 22  2  0  0  0
M  END
>  <Entry>
600

>  <title>
1-7848

>  <rigid docking scores>
-18.6666

>  <InChIKey>
SOHIWQOOFACEFL-UHFFFAOYSA-N

$$$$
atoms 24 bonds 27
dotmatics
mol io
 24 27  0  0  0  0  0  0  0  0999 V2000
    1.4663   -3.4833    0.0000 C   0  0  0  0  0  0  0  0  0  0  0  0
    1.4604   -2.6564    0.0000 N   0  0  0  0  0  0  0  0  0  0  0  0
    0.8714   -2.0758    0.0000 C   0  0  0  0  0  0  0  0  0  0  0  0
    1.4520   -1.4868    0.0000 C   0  0  0  0  0  0  0  0  0  0  0  0
    1.4461   -0.6599    0.0000 N   0  0  0  0  0  0  0  0  0  0  0  0
    2.1594   -0.2413    0.0000 C   0  0  0  0  0  0  0  0  0  0  0  0
    2.8785   -0.6496    0.0000 O   0  0  0  0  0  0  0  0  0  0  0  0
    2.1534    0.5857    0.0000 C   0  0  0  0  0  0  0  0  0  0  0  0
    2.8693    0.9998    0.0000 C   0  0  0  0  0  0  0  0  0  0  0  0
    2.8693    1.8281    0.0000 C   0  0  0  0  0  0  0  0  0  0  0  0
    3.5851    2.2422    0.0000 C   0  0  0  0  0  0  0  0  0  0  0  0
    3.5844    3.0692    0.0000 C   0  0  0  0  0  0  0  0  0  0  0  0
    4.3003    3.4833    0.0000 C   0  0  0  0  0  0  0  0  0  0  0  0
    5.0168    3.0705    0.0000 C   0  0  0  0  0  0  0  0  0  0  0  0
    5.0175    2.2435    0.0000 C   0  0  0  0  0  0  0  0  0  0  0  0
    4.3017    1.8293    0.0000 C   0  0  0  0  0  0  0  0  0  0  0  0
    2.1534    2.2422    0.0000 N   0  0  0  0  0  0  0  0  0  0  0  0
    1.4317    1.8281    0.0000 C   0  0  0  0  0  0  0  0  0  0  0  0
    0.7158    2.2422    0.0000 C   0  0  0  0  0  0  0  0  0  0  0  0
    0.0000    1.8281    0.0000 C   0  0  0  0  0  0  0  0  0  0  0  0
    0.0000    0.9998    0.0000 C   0  0  0  0  0  0  0  0  0  0  0  0
    0.7158    0.5857    0.0000 C   0  0  0  0  0  0  0  0  0  0  0  0
    1.4317    0.9998    0.0000 C   0  0  0  0  0  0  0  0  0  0  0  0
    2.0410   -2.0674    0.0000 C   0  0  0  0  0  0  0  0  0  0  0  0
  1  2  1  0  0  0
  2 24  1  0  0  0
  2  3  1  0  0  0
  3  4  1  0  0  0
  4  5  1  0  0  0
  5  6  1  0  0  0
  6  7  2  0  0  0
  6  8  1  0  0  0
  8 23  1  0  0  0
  8  9  2  0  0  0
  9 10  1  0  0  0
 10 11  1  0  0  0
 11 16  1  0  0  0
 11 12  2  0  0  0
 12 13  1  0  0  0
 13 14  2  0  0  0
 14 15  1  0  0  0
 15 16  2  0  0  0
 10 17  2  0  0  0
 17 18  1  0  0  0
 18 23  1  0  0  0
 18 19  2  0  0  0
 19 20  1  0  0  0
 20 21  2  0  0  0
 21 22  1  0  0  0
 22 23  2  0  0  0
  4 24  1  0  0  0
M  END
>  <Entry>
601

>  <title>
8-7851

>  <rigid docking scores>
-20.3292

>  <InChIKey>
LMGKPDPINOPPOU-UHFFFAOYSA-N

>  <SureChEMBL Patents>
SCHEMBL23722866

$$$$
atoms 24 bonds 27
dotmatics
mol io
 24 27  0  0  0  0  0  0  0  0999 V2000
    1.4663   -3.4833    0.0000 C   0  0  0  0  0  0  0  0  0  0  0  0
    1.4604   -2.6564    0.0000 N   0  0  0  0  0  0  0  0  0  0  0  0
    0.8714   -2.0758    0.0000 C   0  0  0  0  0  0  0  0  0  0  0  0
    1.4520   -1.4868    0.0000 C   0  0  0  0  0  0  0  0  0  0  0  0
    1.4461   -0.6599    0.0000 N   0  0  0  0  0  0  0  0  0  0  0  0
    2.1594   -0.2413    0.0000 C   0  0  0  0  0  0  0  0  0  0  0  0
    2.8785   -0.6496    0.0000 O   0  0  0  0  0  0  0  0  0  0  0  0
    2.1534    0.5857    0.0000 C   0  0  0  0  0  0  0  0  0  0  0  0
    2.8693    0.9998    0.0000 C   0  0  0  0  0  0  0  0  0  0  0  0
    2.8693    1.8281    0.0000 C   0  0  0  0  0  0  0  0  0  0  0  0
    3.5851    2.2422    0.0000 C   0  0  0  0  0  0  0  0  0  0  0  0
    3.5844    3.0692    0.0000 C   0  0  0  0  0  0  0  0  0  0  0  0
    4.3003    3.4833    0.0000 C   0  0  0  0  0  0  0  0  0  0  0  0
    5.0168    3.0705    0.0000 C   0  0  0  0  0  0  0  0  0  0  0  0
    5.0175    2.2435    0.0000 C   0  0  0  0  0  0  0  0  0  0  0  0
    4.3017    1.8293    0.0000 C   0  0  0  0  0  0  0  0  0  0  0  0
    2.1534    2.2422    0.0000 N   0  0  0  0  0  0  0  0  0  0  0  0
    1.4317    1.8281    0.0000 C   0  0  0  0  0  0  0  0  0  0  0  0
    0.7158    2.2422    0.0000 N   0  0  0  0  0  0  0  0  0  0  0  0
    0.0000    1.8281    0.0000 C   0  0  0  0  0  0  0  0  0  0  0  0
    0.0000    0.9998    0.0000 C   0  0  0  0  0  0  0  0  0  0  0  0
    0.7158    0.5857    0.0000 C   0  0  0  0  0  0  0  0  0  0  0  0
    1.4317    0.9998    0.0000 C   0  0  0  0  0  0  0  0  0  0  0  0
    2.0410   -2.0674    0.0000 C   0  0  0  0  0  0  0  0  0  0  0  0
  1  2  1  0  0  0
  2 24  1  0  0  0
  2  3  1  0  0  0
  3  4  1  0  0  0
  4  5  1  0  0  0
  5  6  1  0  0  0
  6  7  2  0  0  0
  6  8  1  0  0  0
  8 23  1  0  0  0
  8  9  2  0  0  0
  9 10  1  0  0  0
 10 11  1  0  0  0
 11 16  1  0  0  0
 11 12  2  0  0  0
 12 13  1  0  0  0
 13 14  2  0  0  0
 14 15  1  0  0  0
 15 16  2  0  0  0
 10 17  2  0  0  0
 17 18  1  0  0  0
 18 23  1  0  0  0
 18 19  2  0  0  0
 19 20  1  0  0  0
 20 21  2  0  0  0
 21 22  1  0  0  0
 22 23  2  0  0  0
  4 24  1  0  0  0
M  END
>  <Entry>
602

>  <title>
8-7852

>  <rigid docking scores>
-20.7408

>  <InChIKey>
UJVUXOYFXINBSS-UHFFFAOYSA-N

$$$$
atoms 22 bonds 24
dotmatics
mol io
 22 24  0  0  0  0  0  0  0  0999 V2000
    3.5851   -2.6813    0.0000 O   0  0  0  0  0  0  0  0  0  0  0  0
    2.8693   -2.2672    0.0000 C   0  0  0  0  0  0  0  0  0  0  0  0
    2.8693   -1.4389    0.0000 C   0  0  0  0  0  0  0  0  0  0  0  0
    2.1534   -1.0248    0.0000 N   0  0  0  0  0  0  0  0  0  0  0  0
    2.1594   -0.1978    0.0000 C   0  0  0  0  0  0  0  0  0  0  0  0
    1.4461    0.2208    0.0000 O   0  0  0  0  0  0  0  0  0  0  0  0
    2.8785    0.2106    0.0000 C   0  0  0  0  0  0  0  0  0  0  0  0
    2.8844    1.0376    0.0000 N   0  0  0  0  0  0  0  0  0  0  0  0
    3.6035    1.4459    0.0000 C   0  0  0  0  0  0  0  0  0  0  0  0
    3.6094    2.2729    0.0000 C   0  0  0  0  0  0  0  0  0  0  0  0
    4.3286    2.6813    0.0000 C   0  0  0  0  0  0  0  0  0  0  0  0
    5.0418    2.2627    0.0000 C   0  0  0  0  0  0  0  0  0  0  0  0
    5.7610    2.6710    0.0000 F   0  0  0  0  0  0  0  0  0  0  0  0
    5.0359    1.4357    0.0000 C   0  0  0  0  0  0  0  0  0  0  0  0
    4.3168    1.0273    0.0000 C   0  0  0  0  0  0  0  0  0  0  0  0
    1.4317   -1.4389    0.0000 C   0  0  0  0  0  0  0  0  0  0  0  0
    0.7158   -1.0248    0.0000 C   0  0  0  0  0  0  0  0  0  0  0  0
    0.0000   -1.4389    0.0000 C   0  0  0  0  0  0  0  0  0  0  0  0
    0.0000   -2.2672    0.0000 C   0  0  0  0  0  0  0  0  0  0  0  0
    0.7158   -2.6813    0.0000 C   0  0  0  0  0  0  0  0  0  0  0  0
    1.4317   -2.2672    0.0000 C   0  0  0  0  0  0  0  0  0  0  0  0
    2.1534   -2.6813    0.0000 N   0  0  0  0  0  0  0  0  0  0  0  0
  1  2  2  0  0  0
  2 22  1  0  0  0
  2  3  1  0  0  0
  3  4  1  0  0  0
  4  5  1  0  0  0
  5  6  2  0  0  0
  5  7  1  0  0  0
  7  8  1  0  0  0
  8  9  1  0  0  0
  9 15  1  0  0  0
  9 10  2  0  0  0
 10 11  1  0  0  0
 11 12  2  0  0  0
 12 13  1  0  0  0
 12 14  1  0  0  0
 14 15  2  0  0  0
  4 16  1  0  0  0
 16 21  1  0  0  0
 16 17  2  0  0  0
 17 18  1  0  0  0
 18 19  2  0  0  0
 19 20  1  0  0  0
 20 21  2  0  0  0
 21 22  1  0  0  0
M  END
>  <Entry>
603

>  <title>
8-7980

>  <rigid docking scores>
-15.8541

>  <InChIKey>
WKLZOJDLQQPQQJ-UHFFFAOYSA-N

>  <Mcule>
MCULE-1307829651

$$$$
atoms 21 bonds 23
dotmatics
mol io
 21 23  0  0  0  0  0  0  0  0999 V2000
    5.4212    1.9670    0.0000 C   0  0  0  0  0  0  0  0  0  0  0  0
    5.4212    1.1400    0.0000 N   0  0  0  0  0  0  0  0  0  0  0  0
    6.0903    0.6539    0.0000 C   0  0  0  0  0  0  0  0  0  0  0  0
    5.8347   -0.1327    0.0000 C   0  0  0  0  0  0  0  0  0  0  0  0
    5.0077   -0.1327    0.0000 C   0  0  0  0  0  0  0  0  0  0  0  0
    4.5216   -0.8017    0.0000 C   0  0  0  0  0  0  0  0  0  0  0  0
    3.6992   -0.7153    0.0000 C   0  0  0  0  0  0  0  0  0  0  0  0
    3.3628    0.0402    0.0000 O   0  0  0  0  0  0  0  0  0  0  0  0
    3.2131   -1.3843    0.0000 N   0  0  0  0  0  0  0  0  0  0  0  0
    2.3906   -1.2979    0.0000 C   0  0  0  0  0  0  0  0  0  0  0  0
    1.9045   -1.9670    0.0000 C   0  0  0  0  0  0  0  0  0  0  0  0
    1.0820   -1.8805    0.0000 C   0  0  0  0  0  0  0  0  0  0  0  0
    0.7456   -1.1250    0.0000 C   0  0  0  0  0  0  0  0  0  0  0  0
    1.2317   -0.4559    0.0000 C   0  0  0  0  0  0  0  0  0  0  0  0
    0.8954    0.2996    0.0000 C   0  0  0  0  0  0  0  0  0  0  0  0
    0.0864    0.4715    0.0000 C   0  0  0  0  0  0  0  0  0  0  0  0
    0.0000    1.2940    0.0000 C   0  0  0  0  0  0  0  0  0  0  0  0
    0.7555    1.6303    0.0000 N   0  0  0  0  0  0  0  0  0  0  0  0
    1.3089    1.0158    0.0000 O   0  0  0  0  0  0  0  0  0  0  0  0
    2.0542   -0.5424    0.0000 C   0  0  0  0  0  0  0  0  0  0  0  0
    4.7522    0.6539    0.0000 C   0  0  0  0  0  0  0  0  0  0  0  0
  1  2  1  0  0  0
  2 21  1  0  0  0
  2  3  1  0  0  0
  3  4  1  0  0  0
  4  5  1  0  0  0
  5  6  1  0  0  0
  6  7  1  0  0  0
  7  8  2  0  0  0
  7  9  1  0  0  0
  9 10  1  0  0  0
 10 20  1  0  0  0
 10 11  2  0  0  0
 11 12  1  0  0  0
 12 13  2  0  0  0
 13 14  1  0  0  0
 14 15  1  0  0  0
 15 19  1  0  0  0
 15 16  2  0  0  0
 16 17  1  0  0  0
 17 18  2  0  0  0
 18 19  1  0  0  0
 14 20  2  0  0  0
  5 21  1  0  0  0
M  END
>  <Entry>
604

>  <title>
1-7979

>  <rigid docking scores>
-17.5949

>  <InChIKey>
HLYKAJIOIOBADE-UHFFFAOYSA-N

$$$$
atoms 21 bonds 23
dotmatics
mol io
 21 23  0  0  0  0  0  0  0  0999 V2000
    0.0022    2.9136    0.0000 C   0  0  0  0  0  0  0  0  0  0  0  0
    0.0014    2.0866    0.0000 C   0  0  0  0  0  0  0  0  0  0  0  0
    0.7173    1.6724    0.0000 N   0  0  0  0  0  0  0  0  0  0  0  0
    0.7166    0.8454    0.0000 C   0  0  0  0  0  0  0  0  0  0  0  0
    0.0000    0.4326    0.0000 O   0  0  0  0  0  0  0  0  0  0  0  0
    1.4324    0.4313    0.0000 N   0  0  0  0  0  0  0  0  0  0  0  0
    1.4324   -0.3969    0.0000 C   0  0  0  0  0  0  0  0  0  0  0  0
    2.1482   -0.8110    0.0000 C   0  0  0  0  0  0  0  0  0  0  0  0
    2.8641   -0.3969    0.0000 C   0  0  0  0  0  0  0  0  0  0  0  0
    2.8641    0.4313    0.0000 C   0  0  0  0  0  0  0  0  0  0  0  0
    3.5859    0.8454    0.0000 N   0  0  0  0  0  0  0  0  0  0  0  0
    4.3017    0.4313    0.0000 C   0  0  0  0  0  0  0  0  0  0  0  0
    5.0175    0.8454    0.0000 Cl  0  0  0  0  0  0  0  0  0  0  0  0
    4.3017   -0.3969    0.0000 N   0  0  0  0  0  0  0  0  0  0  0  0
    3.5859   -0.8110    0.0000 C   0  0  0  0  0  0  0  0  0  0  0  0
    3.5918   -1.6380    0.0000 C   0  0  0  0  0  0  0  0  0  0  0  0
    4.2643   -2.1193    0.0000 C   0  0  0  0  0  0  0  0  0  0  0  0
    4.0143   -2.9077    0.0000 C   0  0  0  0  0  0  0  0  0  0  0  0
    3.1874   -2.9136    0.0000 C   0  0  0  0  0  0  0  0  0  0  0  0
    2.9262   -2.1289    0.0000 O   0  0  0  0  0  0  0  0  0  0  0  0
    2.1482    0.8454    0.0000 C   0  0  0  0  0  0  0  0  0  0  0  0
  1  2  1  0  0  0
  2  3  1  0  0  0
  3  4  1  0  0  0
  4  5  2  0  0  0
  4  6  1  0  0  0
  6 21  1  0  0  0
  6  7  1  0  0  0
  7  8  1  0  0  0
  8  9  1  0  0  0
  9 15  1  0  0  0
  9 10  2  0  0  0
 10 11  1  0  0  0
 11 12  2  0  0  0
 12 13  1  0  0  0
 12 14  1  0  0  0
 14 15  2  0  0  0
 15 16  1  0  0  0
 16 20  1  0  0  0
 16 17  2  0  0  0
 17 18  1  0  0  0
 18 19  2  0  0  0
 19 20  1  0  0  0
 10 21  1  0  0  0
M  END
>  <Entry>
605

>  <title>
8-9362

>  <rigid docking scores>
-18.8685

>  <InChIKey>
VJFAIZLUBLAXSG-UHFFFAOYSA-N

$$$$
atoms 22 bonds 24
dotmatics
mol io
 22 24  0  0  0  0  0  0  0  0999 V2000
   -2.9236    4.4566    0.0000 C   0  0  0  0  0  0  0  0  0  0  0  0
   -2.5101    3.7404    0.0000 C   0  0  0  0  0  0  0  0  0  0  0  0
   -1.6831    3.7404    0.0000 N   0  0  0  0  0  0  0  0  0  0  0  0
   -1.2696    3.0242    0.0000 C   0  0  0  0  0  0  0  0  0  0  0  0
   -1.6831    2.3080    0.0000 O   0  0  0  0  0  0  0  0  0  0  0  0
   -0.4426    3.0242    0.0000 C   0  0  0  0  0  0  0  0  0  0  0  0
    0.0435    3.6933    0.0000 C   0  0  0  0  0  0  0  0  0  0  0  0
    0.8300    3.4377    0.0000 N   0  0  0  0  0  0  0  0  0  0  0  0
    0.8300    2.6107    0.0000 N   0  0  0  0  0  0  0  0  0  0  0  0
    1.4991    2.1246    0.0000 C   0  0  0  0  0  0  0  0  0  0  0  0
    2.2546    2.4610    0.0000 C   0  0  0  0  0  0  0  0  0  0  0  0
    2.9236    1.9749    0.0000 C   0  0  0  0  0  0  0  0  0  0  0  0
    2.8372    1.1524    0.0000 C   0  0  0  0  0  0  0  0  0  0  0  0
    2.0817    0.8161    0.0000 C   0  0  0  0  0  0  0  0  0  0  0  0
    1.4126    1.3022    0.0000 C   0  0  0  0  0  0  0  0  0  0  0  0
    0.0435    2.3552    0.0000 C   0  0  0  0  0  0  0  0  0  0  0  0
   -0.2121    1.5687    0.0000 N   0  0  0  0  0  0  0  0  0  0  0  0
    0.2740    0.8996    0.0000 C   0  0  0  0  0  0  0  0  0  0  0  0
   -0.2121    0.2305    0.0000 C   0  0  0  0  0  0  0  0  0  0  0  0
   -0.9986    0.4861    0.0000 C   0  0  0  0  0  0  0  0  0  0  0  0
   -1.6677    0.0000    0.0000 C   0  0  0  0  0  0  0  0  0  0  0  0
   -0.9986    1.3131    0.0000 N   0  0  0  0  0  0  0  0  0  0  0  0
  1  2  1  0  0  0
  2  3  1  0  0  0
  3  4  1  0  0  0
  4  5  2  0  0  0
  4  6  1  0  0  0
  6 16  2  0  0  0
  6  7  1  0  0  0
  7  8  2  0  0  0
  8  9  1  0  0  0
  9 10  1  0  0  0
 10 15  1  0  0  0
 10 11  2  0  0  0
 11 12  1  0  0  0
 12 13  2  0  0  0
 13 14  1  0  0  0
 14 15  2  0  0  0
  9 16  1  0  0  0
 16 17  1  0  0  0
 17 22  1  0  0  0
 17 18  1  0  0  0
 18 19  2  0  0  0
 19 20  1  0  0  0
 20 21  1  0  0  0
 20 22  2  0  0  0
M  END
>  <Entry>
606

>  <title>
9-412

>  <rigid docking scores>
-15.3848

>  <InChIKey>
VUCOMZUWKYNRFQ-UHFFFAOYSA-N

$$$$
atoms 20 bonds 22
dotmatics
mol io
 20 22  0  0  0  0  0  0  0  0999 V2000
    7.1651    1.4501    0.0000 C   0  0  0  0  0  0  0  0  0  0  0  0
    6.4492    1.0359    0.0000 N   0  0  0  0  0  0  0  0  0  0  0  0
    6.4499    0.2089    0.0000 C   0  0  0  0  0  0  0  0  0  0  0  0
    5.7341   -0.2052    0.0000 C   0  0  0  0  0  0  0  0  0  0  0  0
    5.0175    0.2077    0.0000 C   0  0  0  0  0  0  0  0  0  0  0  0
    4.3017   -0.2064    0.0000 N   0  0  0  0  0  0  0  0  0  0  0  0
    3.5851    0.2064    0.0000 C   0  0  0  0  0  0  0  0  0  0  0  0
    3.5844    1.0334    0.0000 O   0  0  0  0  0  0  0  0  0  0  0  0
    2.8693   -0.2077    0.0000 C   0  0  0  0  0  0  0  0  0  0  0  0
    2.8693   -1.0359    0.0000 C   0  0  0  0  0  0  0  0  0  0  0  0
    2.1534   -1.4501    0.0000 C   0  0  0  0  0  0  0  0  0  0  0  0
    1.4317   -1.0359    0.0000 C   0  0  0  0  0  0  0  0  0  0  0  0
    0.7158   -1.4501    0.0000 C   0  0  0  0  0  0  0  0  0  0  0  0
    0.0000   -1.0359    0.0000 C   0  0  0  0  0  0  0  0  0  0  0  0
    0.0000   -0.2077    0.0000 C   0  0  0  0  0  0  0  0  0  0  0  0
    0.7158    0.2064    0.0000 C   0  0  0  0  0  0  0  0  0  0  0  0
    1.4317   -0.2077    0.0000 C   0  0  0  0  0  0  0  0  0  0  0  0
    2.1534    0.2064    0.0000 N   0  0  0  0  0  0  0  0  0  0  0  0
    5.0168    1.0347    0.0000 C   0  0  0  0  0  0  0  0  0  0  0  0
    5.7327    1.4488    0.0000 C   0  0  0  0  0  0  0  0  0  0  0  0
  1  2  1  0  0  0
  2 20  1  0  0  0
  2  3  1  0  0  0
  3  4  1  0  0  0
  4  5  1  0  0  0
  5  6  1  0  0  0
  6  7  1  0  0  0
  7  8  2  0  0  0
  7  9  1  0  0  0
  9 18  1  0  0  0
  9 10  2  0  0  0
 10 11  1  0  0  0
 11 12  2  0  0  0
 12 17  1  0  0  0
 12 13  1  0  0  0
 13 14  2  0  0  0
 14 15  1  0  0  0
 15 16  2  0  0  0
 16 17  1  0  0  0
 17 18  2  0  0  0
  5 19  1  0  0  0
 19 20  1  0  0  0
M  END
>  <Entry>
607

>  <title>
9-581

>  <rigid docking scores>
-18.8091

>  <InChIKey>
QBLPVEBBPUEUED-UHFFFAOYSA-N

>  <Pubchem>
47114391

>  <Mcule>
MCULE-9520201983

$$$$
atoms 23 bonds 26
dotmatics
mol io
 23 26  0  0  0  0  0  0  0  0999 V2000
    3.2928   -1.4013    0.0000 C   0  0  0  0  0  0  0  0  0  0  0  0
    2.8844   -2.1204    0.0000 C   0  0  0  0  0  0  0  0  0  0  0  0
    2.8785   -1.2934    0.0000 N   0  0  0  0  0  0  0  0  0  0  0  0
    2.1594   -0.8851    0.0000 C   0  0  0  0  0  0  0  0  0  0  0  0
    1.4461   -1.3037    0.0000 O   0  0  0  0  0  0  0  0  0  0  0  0
    2.1534   -0.0581    0.0000 C   0  0  0  0  0  0  0  0  0  0  0  0
    2.8693    0.3560    0.0000 C   0  0  0  0  0  0  0  0  0  0  0  0
    2.8693    1.1843    0.0000 C   0  0  0  0  0  0  0  0  0  0  0  0
    3.5851    1.5984    0.0000 C   0  0  0  0  0  0  0  0  0  0  0  0
    3.5844    2.4254    0.0000 N   0  0  0  0  0  0  0  0  0  0  0  0
    4.3003    2.8395    0.0000 C   0  0  0  0  0  0  0  0  0  0  0  0
    5.0168    2.4267    0.0000 C   0  0  0  0  0  0  0  0  0  0  0  0
    5.0175    1.5997    0.0000 C   0  0  0  0  0  0  0  0  0  0  0  0
    4.3017    1.1855    0.0000 N   0  0  0  0  0  0  0  0  0  0  0  0
    2.1534    1.5984    0.0000 N   0  0  0  0  0  0  0  0  0  0  0  0
    1.4317    1.1843    0.0000 C   0  0  0  0  0  0  0  0  0  0  0  0
    0.7158    1.5984    0.0000 C   0  0  0  0  0  0  0  0  0  0  0  0
    0.0000    1.1843    0.0000 C   0  0  0  0  0  0  0  0  0  0  0  0
    0.0000    0.3560    0.0000 C   0  0  0  0  0  0  0  0  0  0  0  0
    0.7158   -0.0581    0.0000 C   0  0  0  0  0  0  0  0  0  0  0  0
    1.4317    0.3560    0.0000 C   0  0  0  0  0  0  0  0  0  0  0  0
    3.3030   -2.8336    0.0000 C   0  0  0  0  0  0  0  0  0  0  0  0
    2.4760   -2.8395    0.0000 C   0  0  0  0  0  0  0  0  0  0  0  0
  1  2  1  0  0  0
  2 23  1  0  0  0
  2  3  1  0  0  0
  3  4  1  0  0  0
  4  5  2  0  0  0
  4  6  1  0  0  0
  6 21  1  0  0  0
  6  7  2  0  0  0
  7  8  1  0  0  0
  8  9  1  0  0  0
  9 14  1  0  0  0
  9 10  2  0  0  0
 10 11  1  0  0  0
 11 12  2  0  0  0
 12 13  1  0  0  0
 13 14  2  0  0  0
  8 15  2  0  0  0
 15 16  1  0  0  0
 16 21  1  0  0  0
 16 17  2  0  0  0
 17 18  1  0  0  0
 18 19  2  0  0  0
 19 20  1  0  0  0
 20 21  2  0  0  0
  2 22  1  0  0  0
 22 23  1  0  0  0
M  END
>  <Entry>
608

>  <title>
9-2360

>  <rigid docking scores>
-20.68

>  <InChIKey>
PRIFVJSQRWNDIM-UHFFFAOYSA-N

$$$$
atoms 23 bonds 26
dotmatics
mol io
 23 26  0  0  0  0  0  0  0  0999 V2000
    2.8785   -0.8871    0.0000 O   0  0  0  0  0  0  0  0  0  0  0  0
    2.1594   -0.4788    0.0000 C   0  0  0  0  0  0  0  0  0  0  0  0
    1.4461   -0.8974    0.0000 N   0  0  0  0  0  0  0  0  0  0  0  0
    1.4520   -1.7244    0.0000 C   0  0  0  0  0  0  0  0  0  0  0  0
    2.1245   -2.2057    0.0000 C   0  0  0  0  0  0  0  0  0  0  0  0
    1.8746   -2.9940    0.0000 C   0  0  0  0  0  0  0  0  0  0  0  0
    1.0476   -2.9999    0.0000 O   0  0  0  0  0  0  0  0  0  0  0  0
    0.7865   -2.2152    0.0000 C   0  0  0  0  0  0  0  0  0  0  0  0
    2.1534    0.3482    0.0000 C   0  0  0  0  0  0  0  0  0  0  0  0
    2.8693    0.7623    0.0000 C   0  0  0  0  0  0  0  0  0  0  0  0
    2.8693    1.5906    0.0000 C   0  0  0  0  0  0  0  0  0  0  0  0
    3.5851    2.0047    0.0000 C   0  0  0  0  0  0  0  0  0  0  0  0
    3.6709    2.8272    0.0000 C   0  0  0  0  0  0  0  0  0  0  0  0
    4.4796    2.9999    0.0000 S   0  0  0  0  0  0  0  0  0  0  0  0
    4.8938    2.2841    0.0000 C   0  0  0  0  0  0  0  0  0  0  0  0
    4.3409    1.6690    0.0000 N   0  0  0  0  0  0  0  0  0  0  0  0
    2.1534    2.0047    0.0000 N   0  0  0  0  0  0  0  0  0  0  0  0
    1.4317    1.5906    0.0000 C   0  0  0  0  0  0  0  0  0  0  0  0
    0.7158    2.0047    0.0000 C   0  0  0  0  0  0  0  0  0  0  0  0
    0.0000    1.5906    0.0000 C   0  0  0  0  0  0  0  0  0  0  0  0
    0.0000    0.7623    0.0000 C   0  0  0  0  0  0  0  0  0  0  0  0
    0.7158    0.3482    0.0000 C   0  0  0  0  0  0  0  0  0  0  0  0
    1.4317    0.7623    0.0000 C   0  0  0  0  0  0  0  0  0  0  0  0
  1  2  2  0  0  0
  2  3  1  0  0  0
  3  4  1  0  0  0
  4  8  1  0  0  0
  4  5  1  0  0  0
  5  6  1  0  0  0
  6  7  1  0  0  0
  7  8  1  0  0  0
  2  9  1  0  0  0
  9 23  1  0  0  0
  9 10  2  0  0  0
 10 11  1  0  0  0
 11 12  1  0  0  0
 12 16  1  0  0  0
 12 13  2  0  0  0
 13 14  1  0  0  0
 14 15  1  0  0  0
 15 16  2  0  0  0
 11 17  2  0  0  0
 17 18  1  0  0  0
 18 23  1  0  0  0
 18 19  2  0  0  0
 19 20  1  0  0  0
 20 21  2  0  0  0
 21 22  1  0  0  0
 22 23  2  0  0  0
M  END
>  <Entry>
609

>  <title>
9-2398

>  <rigid docking scores>
-19.8649

>  <InChIKey>
NAGMFISOXXQPQP-UHFFFAOYSA-N

$$$$
atoms 20 bonds 22
dotmatics
mol io
 20 22  0  0  0  0  0  0  0  0999 V2000
    7.1334    2.0072    0.0000 C   0  0  0  0  0  0  0  0  0  0  0  0
    6.3776    1.6715    0.0000 C   0  0  0  0  0  0  0  0  0  0  0  0
    6.2049    0.8627    0.0000 C   0  0  0  0  0  0  0  0  0  0  0  0
    5.3824    0.7770    0.0000 C   0  0  0  0  0  0  0  0  0  0  0  0
    4.9682    0.0612    0.0000 C   0  0  0  0  0  0  0  0  0  0  0  0
    4.1412    0.0619    0.0000 N   0  0  0  0  0  0  0  0  0  0  0  0
    3.7271   -0.6540    0.0000 C   0  0  0  0  0  0  0  0  0  0  0  0
    4.1412   -1.3698    0.0000 C   0  0  0  0  0  0  0  0  0  0  0  0
    3.7271   -2.0856    0.0000 C   0  0  0  0  0  0  0  0  0  0  0  0
    2.8989   -2.0856    0.0000 C   0  0  0  0  0  0  0  0  0  0  0  0
    2.4847   -1.3698    0.0000 N   0  0  0  0  0  0  0  0  0  0  0  0
    1.6565   -1.3698    0.0000 C   0  0  0  0  0  0  0  0  0  0  0  0
    1.2424   -2.0856    0.0000 C   0  0  0  0  0  0  0  0  0  0  0  0
    0.4141   -2.0856    0.0000 C   0  0  0  0  0  0  0  0  0  0  0  0
    0.0000   -1.3698    0.0000 C   0  0  0  0  0  0  0  0  0  0  0  0
    0.4141   -0.6540    0.0000 N   0  0  0  0  0  0  0  0  0  0  0  0
    1.2424   -0.6540    0.0000 N   0  0  0  0  0  0  0  0  0  0  0  0
    2.8989   -0.6540    0.0000 C   0  0  0  0  0  0  0  0  0  0  0  0
    5.0467    1.5328    0.0000 N   0  0  0  0  0  0  0  0  0  0  0  0
    5.6617    2.0856    0.0000 O   0  0  0  0  0  0  0  0  0  0  0  0
  1  2  1  0  0  0
  2 20  1  0  0  0
  2  3  2  0  0  0
  3  4  1  0  0  0
  4  5  1  0  0  0
  5  6  1  0  0  0
  6  7  1  0  0  0
  7 18  1  0  0  0
  7  8  1  0  0  0
  8  9  1  0  0  0
  9 10  1  0  0  0
 10 11  1  0  0  0
 11 12  1  0  0  0
 12 17  1  0  0  0
 12 13  2  0  0  0
 13 14  1  0  0  0
 14 15  2  0  0  0
 15 16  1  0  0  0
 16 17  2  0  0  0
 11 18  1  0  0  0
  4 19  2  0  0  0
 19 20  1  0  0  0
M  END
>  <Entry>
610

>  <title>
9-3000

>  <rigid docking scores>
-18.8117

>  <InChIKey>
SWDSEPGDDYXRJT-UHFFFAOYSA-N

>  <ChEMBL>
CHEMBL3469540

>  <eMolecules>
36682225

>  <Pubchem>
53620647

>  <Mcule>
MCULE-6923093307

$$$$
atoms 23 bonds 26
dotmatics
mol io
 23 26  0  0  0  0  0  0  0  0999 V2000
    3.2928   -1.4013    0.0000 C   0  0  0  0  0  0  0  0  0  0  0  0
    2.8844   -2.1204    0.0000 C   0  0  0  0  0  0  0  0  0  0  0  0
    2.8785   -1.2934    0.0000 N   0  0  0  0  0  0  0  0  0  0  0  0
    2.1594   -0.8851    0.0000 C   0  0  0  0  0  0  0  0  0  0  0  0
    1.4461   -1.3037    0.0000 O   0  0  0  0  0  0  0  0  0  0  0  0
    2.1534   -0.0581    0.0000 C   0  0  0  0  0  0  0  0  0  0  0  0
    2.8693    0.3560    0.0000 C   0  0  0  0  0  0  0  0  0  0  0  0
    2.8693    1.1843    0.0000 C   0  0  0  0  0  0  0  0  0  0  0  0
    3.5851    1.5984    0.0000 C   0  0  0  0  0  0  0  0  0  0  0  0
    3.5844    2.4254    0.0000 C   0  0  0  0  0  0  0  0  0  0  0  0
    4.3003    2.8395    0.0000 N   0  0  0  0  0  0  0  0  0  0  0  0
    5.0168    2.4267    0.0000 C   0  0  0  0  0  0  0  0  0  0  0  0
    5.0175    1.5997    0.0000 C   0  0  0  0  0  0  0  0  0  0  0  0
    4.3017    1.1855    0.0000 N   0  0  0  0  0  0  0  0  0  0  0  0
    2.1534    1.5984    0.0000 N   0  0  0  0  0  0  0  0  0  0  0  0
    1.4317    1.1843    0.0000 C   0  0  0  0  0  0  0  0  0  0  0  0
    0.7158    1.5984    0.0000 C   0  0  0  0  0  0  0  0  0  0  0  0
    0.0000    1.1843    0.0000 C   0  0  0  0  0  0  0  0  0  0  0  0
    0.0000    0.3560    0.0000 C   0  0  0  0  0  0  0  0  0  0  0  0
    0.7158   -0.0581    0.0000 C   0  0  0  0  0  0  0  0  0  0  0  0
    1.4317    0.3560    0.0000 C   0  0  0  0  0  0  0  0  0  0  0  0
    3.3030   -2.8336    0.0000 C   0  0  0  0  0  0  0  0  0  0  0  0
    2.4760   -2.8395    0.0000 C   0  0  0  0  0  0  0  0  0  0  0  0
  1  2  1  0  0  0
  2 23  1  0  0  0
  2  3  1  0  0  0
  3  4  1  0  0  0
  4  5  2  0  0  0
  4  6  1  0  0  0
  6 21  1  0  0  0
  6  7  2  0  0  0
  7  8  1  0  0  0
  8  9  1  0  0  0
  9 14  1  0  0  0
  9 10  2  0  0  0
 10 11  1  0  0  0
 11 12  2  0  0  0
 12 13  1  0  0  0
 13 14  2  0  0  0
  8 15  2  0  0  0
 15 16  1  0  0  0
 16 21  1  0  0  0
 16 17  2  0  0  0
 17 18  1  0  0  0
 18 19  2  0  0  0
 19 20  1  0  0  0
 20 21  2  0  0  0
  2 22  1  0  0  0
 22 23  1  0  0  0
M  END
>  <Entry>
611

>  <title>
9-5154

>  <rigid docking scores>
-17.5038

>  <InChIKey>
ILOZHFPIIONKEF-UHFFFAOYSA-N

$$$$
atoms 21 bonds 23
dotmatics
mol io
 21 23  0  0  0  0  0  0  0  0999 V2000
    4.2972    1.8447    0.0000 C   0  0  0  0  0  0  0  0  0  0  0  0
    4.2972    1.0177    0.0000 N   0  0  0  0  0  0  0  0  0  0  0  0
    5.0134    0.6042    0.0000 C   0  0  0  0  0  0  0  0  0  0  0  0
    5.0134   -0.2228    0.0000 C   0  0  0  0  0  0  0  0  0  0  0  0
    4.2972   -0.6363    0.0000 O   0  0  0  0  0  0  0  0  0  0  0  0
    3.5810   -0.2228    0.0000 C   0  0  0  0  0  0  0  0  0  0  0  0
    2.8648   -0.6363    0.0000 C   0  0  0  0  0  0  0  0  0  0  0  0
    2.8648   -1.4633    0.0000 O   0  0  0  0  0  0  0  0  0  0  0  0
    2.1486   -0.2228    0.0000 N   0  0  0  0  0  0  0  0  0  0  0  0
    1.4324   -0.6363    0.0000 C   0  0  0  0  0  0  0  0  0  0  0  0
    1.4324   -1.4633    0.0000 C   0  0  0  0  0  0  0  0  0  0  0  0
    0.7162   -1.8768    0.0000 C   0  0  0  0  0  0  0  0  0  0  0  0
    0.0000   -1.4633    0.0000 C   0  0  0  0  0  0  0  0  0  0  0  0
    0.0000   -0.6363    0.0000 C   0  0  0  0  0  0  0  0  0  0  0  0
    0.7162   -0.2228    0.0000 C   0  0  0  0  0  0  0  0  0  0  0  0
    0.7162    0.6042    0.0000 C   0  0  0  0  0  0  0  0  0  0  0  0
    0.0471    1.0903    0.0000 N   0  0  0  0  0  0  0  0  0  0  0  0
    0.3027    1.8768    0.0000 C   0  0  0  0  0  0  0  0  0  0  0  0
    1.1297    1.8768    0.0000 C   0  0  0  0  0  0  0  0  0  0  0  0
    1.3853    1.0903    0.0000 S   0  0  0  0  0  0  0  0  0  0  0  0
    3.5810    0.6042    0.0000 C   0  0  0  0  0  0  0  0  0  0  0  0
  1  2  1  0  0  0
  2 21  1  0  0  0
  2  3  1  0  0  0
  3  4  1  0  0  0
  4  5  1  0  0  0
  5  6  1  0  0  0
  6  7  1  0  0  0
  7  8  2  0  0  0
  7  9  1  0  0  0
  9 10  1  0  0  0
 10 15  1  0  0  0
 10 11  2  0  0  0
 11 12  1  0  0  0
 12 13  2  0  0  0
 13 14  1  0  0  0
 14 15  2  0  0  0
 15 16  1  0  0  0
 16 20  1  0  0  0
 16 17  2  0  0  0
 17 18  1  0  0  0
 18 19  2  0  0  0
 19 20  1  0  0  0
  6 21  1  0  0  0
M  END
>  <Entry>
612

>  <title>
1-8709

>  <rigid docking scores>
-18.7732

>  <InChIKey>
QWRDVQKOVJXPIF-UHFFFAOYSA-N

$$$$
atoms 22 bonds 24
dotmatics
mol io
 22 24  0  0  0  0  0  0  0  0999 V2000
   -3.1012    0.7162    0.0000 O   0  0  0  0  0  0  0  0  0  0  0  0
   -2.2743    0.7162    0.0000 C   0  0  0  0  0  0  0  0  0  0  0  0
   -1.8607    1.4324    0.0000 C   0  0  0  0  0  0  0  0  0  0  0  0
   -1.0338    1.4324    0.0000 N   0  0  0  0  0  0  0  0  0  0  0  0
   -0.6202    2.1486    0.0000 C   0  0  0  0  0  0  0  0  0  0  0  0
    0.2067    2.1486    0.0000 C   0  0  0  0  0  0  0  0  0  0  0  0
    0.6202    1.4324    0.0000 O   0  0  0  0  0  0  0  0  0  0  0  0
    0.6202    2.8648    0.0000 N   0  0  0  0  0  0  0  0  0  0  0  0
    1.4472    2.8648    0.0000 C   0  0  0  0  0  0  0  0  0  0  0  0
    1.8607    2.1486    0.0000 C   0  0  0  0  0  0  0  0  0  0  0  0
    2.6877    2.1486    0.0000 C   0  0  0  0  0  0  0  0  0  0  0  0
    3.1012    2.8648    0.0000 C   0  0  0  0  0  0  0  0  0  0  0  0
    2.6878    3.5810    0.0000 C   0  0  0  0  0  0  0  0  0  0  0  0
    1.8607    3.5810    0.0000 C   0  0  0  0  0  0  0  0  0  0  0  0
    1.4473    4.2972    0.0000 C   0  0  0  0  0  0  0  0  0  0  0  0
    0.6248    4.3837    0.0000 N   0  0  0  0  0  0  0  0  0  0  0  0
    0.4528    5.1926    0.0000 C   0  0  0  0  0  0  0  0  0  0  0  0
    1.1690    5.6061    0.0000 O   0  0  0  0  0  0  0  0  0  0  0  0
    1.7836    5.0527    0.0000 N   0  0  0  0  0  0  0  0  0  0  0  0
   -0.6202    0.7162    0.0000 C   0  0  0  0  0  0  0  0  0  0  0  0
   -1.0338    0.0000    0.0000 C   0  0  0  0  0  0  0  0  0  0  0  0
   -1.8607    0.0000    0.0000 N   0  0  0  0  0  0  0  0  0  0  0  0
  1  2  2  0  0  0
  2 22  1  0  0  0
  2  3  1  0  0  0
  3  4  1  0  0  0
  4  5  1  0  0  0
  5  6  1  0  0  0
  6  7  2  0  0  0
  6  8  1  0  0  0
  8  9  1  0  0  0
  9 14  1  0  0  0
  9 10  2  0  0  0
 10 11  1  0  0  0
 11 12  2  0  0  0
 12 13  1  0  0  0
 13 14  2  0  0  0
 14 15  1  0  0  0
 15 19  2  0  0  0
 15 16  1  0  0  0
 16 17  2  0  0  0
 17 18  1  0  0  0
 18 19  1  0  0  0
  4 20  1  0  0  0
 20 21  1  0  0  0
 21 22  1  0  0  0
M  END
>  <Entry>
613

>  <title>
1-8712

>  <rigid docking scores>
-15.5138

>  <InChIKey>
YHNYUBCQJKALMX-UHFFFAOYSA-N

$$$$
atoms 21 bonds 23
dotmatics
mol io
 21 23  0  0  0  0  0  0  0  0999 V2000
   -2.7751    3.2551    0.0000 C   0  0  0  0  0  0  0  0  0  0  0  0
   -1.9481    3.2551    0.0000 C   0  0  0  0  0  0  0  0  0  0  0  0
   -1.4620    3.9241    0.0000 N   0  0  0  0  0  0  0  0  0  0  0  0
   -0.6755    3.6686    0.0000 C   0  0  0  0  0  0  0  0  0  0  0  0
   -0.0064    4.1547    0.0000 C   0  0  0  0  0  0  0  0  0  0  0  0
   -0.0929    4.9772    0.0000 C   0  0  0  0  0  0  0  0  0  0  0  0
    0.5762    5.4633    0.0000 C   0  0  0  0  0  0  0  0  0  0  0  0
    1.3317    5.1269    0.0000 C   0  0  0  0  0  0  0  0  0  0  0  0
    1.4181    4.3044    0.0000 C   0  0  0  0  0  0  0  0  0  0  0  0
    0.7491    3.8183    0.0000 C   0  0  0  0  0  0  0  0  0  0  0  0
    0.8355    2.9958    0.0000 N   0  0  0  0  0  0  0  0  0  0  0  0
    1.5910    2.6595    0.0000 C   0  0  0  0  0  0  0  0  0  0  0  0
    2.2601    3.1456    0.0000 O   0  0  0  0  0  0  0  0  0  0  0  0
    1.6775    1.8370    0.0000 C   0  0  0  0  0  0  0  0  0  0  0  0
    1.0629    1.2836    0.0000 C   0  0  0  0  0  0  0  0  0  0  0  0
    1.3993    0.5281    0.0000 C   0  0  0  0  0  0  0  0  0  0  0  0
    2.2217    0.6146    0.0000 N   0  0  0  0  0  0  0  0  0  0  0  0
    2.7751   -0.0000    0.0000 C   0  0  0  0  0  0  0  0  0  0  0  0
    2.3937    1.4235    0.0000 C   0  0  0  0  0  0  0  0  0  0  0  0
   -0.6755    2.8416    0.0000 N   0  0  0  0  0  0  0  0  0  0  0  0
   -1.4620    2.5860    0.0000 O   0  0  0  0  0  0  0  0  0  0  0  0
  1  2  1  0  0  0
  2 21  1  0  0  0
  2  3  2  0  0  0
  3  4  1  0  0  0
  4  5  1  0  0  0
  5 10  1  0  0  0
  5  6  2  0  0  0
  6  7  1  0  0  0
  7  8  2  0  0  0
  8  9  1  0  0  0
  9 10  2  0  0  0
 10 11  1  0  0  0
 11 12  1  0  0  0
 12 13  2  0  0  0
 12 14  1  0  0  0
 14 19  1  0  0  0
 14 15  1  0  0  0
 15 16  1  0  0  0
 16 17  1  0  0  0
 17 18  1  0  0  0
 17 19  1  0  0  0
  4 20  2  0  0  0
 20 21  1  0  0  0
M  END
>  <Entry>
614

>  <title>
1-8732

>  <rigid docking scores>
-18.6642

>  <InChIKey>
WMKRJJLIQZYRPR-UHFFFAOYSA-N

$$$$
atoms 20 bonds 22
dotmatics
mol io
 20 22  0  0  0  0  0  0  0  0999 V2000
    4.6170   -3.0032    0.0000 C   0  0  0  0  0  0  0  0  0  0  0  0
    4.3646   -2.2157    0.0000 C   0  0  0  0  0  0  0  0  0  0  0  0
    4.8556   -1.5472    0.0000 C   0  0  0  0  0  0  0  0  0  0  0  0
    4.3646   -0.8786    0.0000 N   0  0  0  0  0  0  0  0  0  0  0  0
    3.5778   -1.1330    0.0000 C   0  0  0  0  0  0  0  0  0  0  0  0
    3.5778   -1.9613    0.0000 N   0  0  0  0  0  0  0  0  0  0  0  0
    2.8619   -2.3754    0.0000 C   0  0  0  0  0  0  0  0  0  0  0  0
    2.1461   -1.9613    0.0000 C   0  0  0  0  0  0  0  0  0  0  0  0
    2.1461   -1.1330    0.0000 N   0  0  0  0  0  0  0  0  0  0  0  0
    1.4302   -0.7189    0.0000 C   0  0  0  0  0  0  0  0  0  0  0  0
    1.4310    0.1081    0.0000 C   0  0  0  0  0  0  0  0  0  0  0  0
    2.1475    0.5210    0.0000 O   0  0  0  0  0  0  0  0  0  0  0  0
    0.7151    0.5222    0.0000 N   0  0  0  0  0  0  0  0  0  0  0  0
    0.7158    1.3492    0.0000 C   0  0  0  0  0  0  0  0  0  0  0  0
    0.0000    1.7633    0.0000 C   0  0  0  0  0  0  0  0  0  0  0  0
    0.0007    2.5903    0.0000 C   0  0  0  0  0  0  0  0  0  0  0  0
    0.7173    3.0032    0.0000 C   0  0  0  0  0  0  0  0  0  0  0  0
    1.4331    2.5891    0.0000 C   0  0  0  0  0  0  0  0  0  0  0  0
    1.4324    1.7621    0.0000 C   0  0  0  0  0  0  0  0  0  0  0  0
    2.8619   -0.7189    0.0000 C   0  0  0  0  0  0  0  0  0  0  0  0
  1  2  1  0  0  0
  2  6  1  0  0  0
  2  3  2  0  0  0
  3  4  1  0  0  0
  4  5  2  0  0  0
  5 20  1  0  0  0
  5  6  1  0  0  0
  6  7  1  0  0  0
  7  8  1  0  0  0
  8  9  1  0  0  0
  9 10  1  0  0  0
 10 11  1  0  0  0
 11 12  2  0  0  0
 11 13  1  0  0  0
 13 14  1  0  0  0
 14 19  1  0  0  0
 14 15  2  0  0  0
 15 16  1  0  0  0
 16 17  2  0  0  0
 17 18  1  0  0  0
 18 19  2  0  0  0
  9 20  1  0  0  0
M  END
>  <Entry>
615

>  <title>
1-8742

>  <rigid docking scores>
-16.095

>  <InChIKey>
JDMJWKNHDLSOCG-UHFFFAOYSA-N

$$$$
atoms 23 bonds 26
dotmatics
mol io
 23 26  0  0  0  0  0  0  0  0999 V2000
    1.4638   -3.1891    0.0000 C   0  0  0  0  0  0  0  0  0  0  0  0
    2.1771   -2.7705    0.0000 C   0  0  0  0  0  0  0  0  0  0  0  0
    2.1712   -1.9435    0.0000 N   0  0  0  0  0  0  0  0  0  0  0  0
    1.4520   -1.5351    0.0000 C   0  0  0  0  0  0  0  0  0  0  0  0
    1.4461   -0.7082    0.0000 C   0  0  0  0  0  0  0  0  0  0  0  0
    2.1594   -0.2896    0.0000 N   0  0  0  0  0  0  0  0  0  0  0  0
    2.1534    0.5374    0.0000 C   0  0  0  0  0  0  0  0  0  0  0  0
    2.8693    0.9515    0.0000 N   0  0  0  0  0  0  0  0  0  0  0  0
    2.8693    1.7798    0.0000 C   0  0  0  0  0  0  0  0  0  0  0  0
    3.5851    2.1939    0.0000 C   0  0  0  0  0  0  0  0  0  0  0  0
    3.6709    3.0165    0.0000 C   0  0  0  0  0  0  0  0  0  0  0  0
    4.4796    3.1891    0.0000 C   0  0  0  0  0  0  0  0  0  0  0  0
    4.8938    2.4733    0.0000 N   0  0  0  0  0  0  0  0  0  0  0  0
    4.3409    1.8582    0.0000 N   0  0  0  0  0  0  0  0  0  0  0  0
    2.1534    2.1939    0.0000 N   0  0  0  0  0  0  0  0  0  0  0  0
    1.4317    1.7798    0.0000 C   0  0  0  0  0  0  0  0  0  0  0  0
    0.7158    2.1939    0.0000 C   0  0  0  0  0  0  0  0  0  0  0  0
    0.0000    1.7798    0.0000 C   0  0  0  0  0  0  0  0  0  0  0  0
    0.0000    0.9515    0.0000 C   0  0  0  0  0  0  0  0  0  0  0  0
    0.7158    0.5374    0.0000 C   0  0  0  0  0  0  0  0  0  0  0  0
    1.4317    0.9515    0.0000 C   0  0  0  0  0  0  0  0  0  0  0  0
    2.8785   -0.6979    0.0000 C   0  0  0  0  0  0  0  0  0  0  0  0
    2.8844   -1.5249    0.0000 C   0  0  0  0  0  0  0  0  0  0  0  0
  1  2  1  0  0  0
  2  3  1  0  0  0
  3 23  1  0  0  0
  3  4  1  0  0  0
  4  5  1  0  0  0
  5  6  1  0  0  0
  6  7  1  0  0  0
  7 21  1  0  0  0
  7  8  2  0  0  0
  8  9  1  0  0  0
  9 10  1  0  0  0
 10 14  2  0  0  0
 10 11  1  0  0  0
 11 12  2  0  0  0
 12 13  1  0  0  0
 13 14  1  0  0  0
  9 15  2  0  0  0
 15 16  1  0  0  0
 16 21  1  0  0  0
 16 17  2  0  0  0
 17 18  1  0  0  0
 18 19  2  0  0  0
 19 20  1  0  0  0
 20 21  2  0  0  0
  6 22  1  0  0  0
 22 23  1  0  0  0
M  END
>  <Entry>
616

>  <title>
9-5857

>  <rigid docking scores>
-19.0135

>  <InChIKey>
OCDOJFLQIPZQDR-UHFFFAOYSA-N

$$$$
atoms 24 bonds 27
dotmatics
mol io
 24 27  0  0  0  0  0  0  0  0999 V2000
    2.1594   -2.4841    0.0000 C   0  0  0  0  0  0  0  0  0  0  0  0
    2.1534   -1.6571    0.0000 C   0  0  0  0  0  0  0  0  0  0  0  0
    2.8693   -1.2430    0.0000 C   0  0  0  0  0  0  0  0  0  0  0  0
    2.8693   -0.4148    0.0000 C   0  0  0  0  0  0  0  0  0  0  0  0
    3.5851   -0.0006    0.0000 N   0  0  0  0  0  0  0  0  0  0  0  0
    3.5844    0.8264    0.0000 C   0  0  0  0  0  0  0  0  0  0  0  0
    4.3003    1.2405    0.0000 C   0  0  0  0  0  0  0  0  0  0  0  0
    5.0168    0.8276    0.0000 N   0  0  0  0  0  0  0  0  0  0  0  0
    5.7327    1.2417    0.0000 C   0  0  0  0  0  0  0  0  0  0  0  0
    5.7319    2.0687    0.0000 C   0  0  0  0  0  0  0  0  0  0  0  0
    6.4478    2.4829    0.0000 C   0  0  0  0  0  0  0  0  0  0  0  0
    7.1643    2.0700    0.0000 N   0  0  0  0  0  0  0  0  0  0  0  0
    7.8802    2.4841    0.0000 C   0  0  0  0  0  0  0  0  0  0  0  0
    7.1651    1.2430    0.0000 C   0  0  0  0  0  0  0  0  0  0  0  0
    6.4492    0.8289    0.0000 C   0  0  0  0  0  0  0  0  0  0  0  0
    5.0175    0.0006    0.0000 C   0  0  0  0  0  0  0  0  0  0  0  0
    4.3017   -0.4135    0.0000 C   0  0  0  0  0  0  0  0  0  0  0  0
    2.1534   -0.0006    0.0000 N   0  0  0  0  0  0  0  0  0  0  0  0
    1.4317   -0.4148    0.0000 C   0  0  0  0  0  0  0  0  0  0  0  0
    0.7158   -0.0006    0.0000 C   0  0  0  0  0  0  0  0  0  0  0  0
    0.0000   -0.4148    0.0000 C   0  0  0  0  0  0  0  0  0  0  0  0
    0.0000   -1.2430    0.0000 C   0  0  0  0  0  0  0  0  0  0  0  0
    0.7158   -1.6571    0.0000 C   0  0  0  0  0  0  0  0  0  0  0  0
    1.4317   -1.2430    0.0000 C   0  0  0  0  0  0  0  0  0  0  0  0
  1  2  1  0  0  0
  2 24  1  0  0  0
  2  3  2  0  0  0
  3  4  1  0  0  0
  4  5  1  0  0  0
  5 17  1  0  0  0
  5  6  1  0  0  0
  6  7  1  0  0  0
  7  8  1  0  0  0
  8  9  1  0  0  0
  9 15  1  0  0  0
  9 10  1  0  0  0
 10 11  1  0  0  0
 11 12  1  0  0  0
 12 13  1  0  0  0
 12 14  1  0  0  0
 14 15  1  0  0  0
  8 16  1  0  0  0
 16 17  1  0  0  0
  4 18  2  0  0  0
 18 19  1  0  0  0
 19 24  1  0  0  0
 19 20  2  0  0  0
 20 21  1  0  0  0
 21 22  2  0  0  0
 22 23  1  0  0  0
 23 24  2  0  0  0
M  END
>  <Entry>
617

>  <title>
9-6581

>  <rigid docking scores>
-18.0575

>  <InChIKey>
NRAPHSOIQSAIRH-UHFFFAOYSA-N

$$$$
atoms 24 bonds 26
dotmatics
mol io
 24 26  0  0  0  0  0  0  0  0999 V2000
    2.9021    3.0999    0.0000 C   0  0  0  0  0  0  0  0  0  0  0  0
    2.8962    2.2729    0.0000 C   0  0  0  0  0  0  0  0  0  0  0  0
    3.6094    1.8543    0.0000 C   0  0  0  0  0  0  0  0  0  0  0  0
    4.3286    2.2627    0.0000 C   0  0  0  0  0  0  0  0  0  0  0  0
    5.0418    1.8441    0.0000 C   0  0  0  0  0  0  0  0  0  0  0  0
    5.0359    1.0171    0.0000 C   0  0  0  0  0  0  0  0  0  0  0  0
    4.3168    0.6087    0.0000 C   0  0  0  0  0  0  0  0  0  0  0  0
    4.3109   -0.2183    0.0000 C   0  0  0  0  0  0  0  0  0  0  0  0
    3.6035    1.0273    0.0000 C   0  0  0  0  0  0  0  0  0  0  0  0
    2.8844    0.6189    0.0000 N   0  0  0  0  0  0  0  0  0  0  0  0
    2.8785   -0.2080    0.0000 C   0  0  0  0  0  0  0  0  0  0  0  0
    3.5917   -0.6266    0.0000 O   0  0  0  0  0  0  0  0  0  0  0  0
    2.1594   -0.6164    0.0000 C   0  0  0  0  0  0  0  0  0  0  0  0
    2.1534   -1.4434    0.0000 N   0  0  0  0  0  0  0  0  0  0  0  0
    2.8693   -1.8575    0.0000 C   0  0  0  0  0  0  0  0  0  0  0  0
    2.8693   -2.6858    0.0000 C   0  0  0  0  0  0  0  0  0  0  0  0
    3.5851   -3.0999    0.0000 O   0  0  0  0  0  0  0  0  0  0  0  0
    2.1534   -3.0999    0.0000 N   0  0  0  0  0  0  0  0  0  0  0  0
    1.4317   -2.6858    0.0000 C   0  0  0  0  0  0  0  0  0  0  0  0
    0.7158   -3.0999    0.0000 C   0  0  0  0  0  0  0  0  0  0  0  0
    0.0000   -2.6858    0.0000 C   0  0  0  0  0  0  0  0  0  0  0  0
    0.0000   -1.8575    0.0000 C   0  0  0  0  0  0  0  0  0  0  0  0
    0.7158   -1.4434    0.0000 C   0  0  0  0  0  0  0  0  0  0  0  0
    1.4317   -1.8575    0.0000 C   0  0  0  0  0  0  0  0  0  0  0  0
  1  2  1  0  0  0
  2  3  1  0  0  0
  3  9  1  0  0  0
  3  4  2  0  0  0
  4  5  1  0  0  0
  5  6  2  0  0  0
  6  7  1  0  0  0
  7  8  1  0  0  0
  7  9  2  0  0  0
  9 10  1  0  0  0
 10 11  1  0  0  0
 11 12  2  0  0  0
 11 13  1  0  0  0
 13 14  1  0  0  0
 14 24  1  0  0  0
 14 15  1  0  0  0
 15 16  1  0  0  0
 16 17  2  0  0  0
 16 18  1  0  0  0
 18 19  1  0  0  0
 19 24  1  0  0  0
 19 20  2  0  0  0
 20 21  1  0  0  0
 21 22  2  0  0  0
 22 23  1  0  0  0
 23 24  2  0  0  0
M  END
>  <Entry>
618

>  <title>
1-8872

>  <rigid docking scores>
-16.6918

>  <InChIKey>
FNOMLULHWDZONP-UHFFFAOYSA-N

$$$$
atoms 23 bonds 25
dotmatics
mol io
 23 25  0  0  0  0  0  0  0  0999 V2000
    3.5851    3.3143    0.0000 C   0  0  0  0  0  0  0  0  0  0  0  0
    2.8693    2.9002    0.0000 C   0  0  0  0  0  0  0  0  0  0  0  0
    2.8693    2.0719    0.0000 C   0  0  0  0  0  0  0  0  0  0  0  0
    2.1534    1.6578    0.0000 C   0  0  0  0  0  0  0  0  0  0  0  0
    2.1594    0.8308    0.0000 C   0  0  0  0  0  0  0  0  0  0  0  0
    2.8785    0.4225    0.0000 O   0  0  0  0  0  0  0  0  0  0  0  0
    1.4461    0.4122    0.0000 N   0  0  0  0  0  0  0  0  0  0  0  0
    1.4520   -0.4148    0.0000 C   0  0  0  0  0  0  0  0  0  0  0  0
    0.7388   -0.8334    0.0000 C   0  0  0  0  0  0  0  0  0  0  0  0
    0.0197   -0.4250    0.0000 O   0  0  0  0  0  0  0  0  0  0  0  0
    0.7447   -1.6603    0.0000 N   0  0  0  0  0  0  0  0  0  0  0  0
    1.4638   -2.0687    0.0000 C   0  0  0  0  0  0  0  0  0  0  0  0
    1.4698   -2.8957    0.0000 C   0  0  0  0  0  0  0  0  0  0  0  0
    0.7565   -3.3143    0.0000 O   0  0  0  0  0  0  0  0  0  0  0  0
    0.0374   -2.9059    0.0000 C   0  0  0  0  0  0  0  0  0  0  0  0
    0.0315   -2.0789    0.0000 C   0  0  0  0  0  0  0  0  0  0  0  0
    1.4317    2.0719    0.0000 C   0  0  0  0  0  0  0  0  0  0  0  0
    0.7158    1.6578    0.0000 C   0  0  0  0  0  0  0  0  0  0  0  0
    0.0000    2.0719    0.0000 C   0  0  0  0  0  0  0  0  0  0  0  0
    0.0000    2.9002    0.0000 C   0  0  0  0  0  0  0  0  0  0  0  0
    0.7158    3.3143    0.0000 C   0  0  0  0  0  0  0  0  0  0  0  0
    1.4317    2.9002    0.0000 C   0  0  0  0  0  0  0  0  0  0  0  0
    2.1534    3.3143    0.0000 N   0  0  0  0  0  0  0  0  0  0  0  0
  1  2  1  0  0  0
  2 23  1  0  0  0
  2  3  2  0  0  0
  3  4  1  0  0  0
  4  5  1  0  0  0
  5  6  2  0  0  0
  5  7  1  0  0  0
  7  8  1  0  0  0
  8  9  1  0  0  0
  9 10  2  0  0  0
  9 11  1  0  0  0
 11 16  1  0  0  0
 11 12  1  0  0  0
 12 13  1  0  0  0
 13 14  1  0  0  0
 14 15  1  0  0  0
 15 16  1  0  0  0
  4 17  2  0  0  0
 17 22  1  0  0  0
 17 18  1  0  0  0
 18 19  2  0  0  0
 19 20  1  0  0  0
 20 21  2  0  0  0
 21 22  1  0  0  0
 22 23  2  0  0  0
M  END
>  <Entry>
619

>  <title>
1-8917

>  <rigid docking scores>
-16.9535

>  <InChIKey>
SZMAMUKXHGFNSB-UHFFFAOYSA-N

>  <Mcule>
MCULE-7544901011

$$$$
atoms 24 bonds 26
dotmatics
mol io
 24 26  0  0  0  0  0  0  0  0999 V2000
    0.0492   -3.9371    0.0000 C   0  0  0  0  0  0  0  0  0  0  0  0
    0.7624   -3.5185    0.0000 N   0  0  0  0  0  0  0  0  0  0  0  0
    1.4816   -3.9269    0.0000 C   0  0  0  0  0  0  0  0  0  0  0  0
    0.7565   -2.6915    0.0000 C   0  0  0  0  0  0  0  0  0  0  0  0
    0.0374   -2.2831    0.0000 O   0  0  0  0  0  0  0  0  0  0  0  0
    1.4698   -2.2729    0.0000 C   0  0  0  0  0  0  0  0  0  0  0  0
    1.4638   -1.4459    0.0000 N   0  0  0  0  0  0  0  0  0  0  0  0
    0.7447   -1.0376    0.0000 C   0  0  0  0  0  0  0  0  0  0  0  0
    0.7388   -0.2106    0.0000 C   0  0  0  0  0  0  0  0  0  0  0  0
    1.4520    0.2080    0.0000 C   0  0  0  0  0  0  0  0  0  0  0  0
    1.4461    1.0350    0.0000 N   0  0  0  0  0  0  0  0  0  0  0  0
    2.1594    1.4536    0.0000 C   0  0  0  0  0  0  0  0  0  0  0  0
    2.1534    2.2806    0.0000 C   0  0  0  0  0  0  0  0  0  0  0  0
    2.8693    2.6947    0.0000 C   0  0  0  0  0  0  0  0  0  0  0  0
    2.8693    3.5230    0.0000 C   0  0  0  0  0  0  0  0  0  0  0  0
    2.1534    3.9371    0.0000 N   0  0  0  0  0  0  0  0  0  0  0  0
    1.4317    3.5230    0.0000 C   0  0  0  0  0  0  0  0  0  0  0  0
    0.7158    3.9371    0.0000 C   0  0  0  0  0  0  0  0  0  0  0  0
    0.0000    3.5230    0.0000 C   0  0  0  0  0  0  0  0  0  0  0  0
    0.0000    2.6947    0.0000 C   0  0  0  0  0  0  0  0  0  0  0  0
    0.7158    2.2806    0.0000 C   0  0  0  0  0  0  0  0  0  0  0  0
    1.4317    2.6947    0.0000 C   0  0  0  0  0  0  0  0  0  0  0  0
    2.1712   -0.2003    0.0000 C   0  0  0  0  0  0  0  0  0  0  0  0
    2.1771   -1.0273    0.0000 C   0  0  0  0  0  0  0  0  0  0  0  0
  1  2  1  0  0  0
  2  3  1  0  0  0
  2  4  1  0  0  0
  4  5  2  0  0  0
  4  6  1  0  0  0
  6  7  1  0  0  0
  7 24  1  0  0  0
  7  8  1  0  0  0
  8  9  1  0  0  0
  9 10  1  0  0  0
 10 11  1  0  0  0
 11 12  1  0  0  0
 12 13  1  0  0  0
 13 22  1  0  0  0
 13 14  2  0  0  0
 14 15  1  0  0  0
 15 16  2  0  0  0
 16 17  1  0  0  0
 17 22  1  0  0  0
 17 18  2  0  0  0
 18 19  1  0  0  0
 19 20  2  0  0  0
 20 21  1  0  0  0
 21 22  2  0  0  0
 10 23  1  0  0  0
 23 24  1  0  0  0
M  END
>  <Entry>
620

>  <title>
1-8928

>  <rigid docking scores>
-17.8099

>  <InChIKey>
MCUOMKRKSIGGRS-UHFFFAOYSA-N

$$$$
atoms 20 bonds 22
dotmatics
mol io
 20 22  0  0  0  0  0  0  0  0999 V2000
    4.3017    1.5938    0.0000 C   0  0  0  0  0  0  0  0  0  0  0  0
    3.5851    2.0067    0.0000 C   0  0  0  0  0  0  0  0  0  0  0  0
    2.8693    1.5926    0.0000 N   0  0  0  0  0  0  0  0  0  0  0  0
    2.8693    0.7644    0.0000 C   0  0  0  0  0  0  0  0  0  0  0  0
    2.1534    0.3502    0.0000 C   0  0  0  0  0  0  0  0  0  0  0  0
    2.1594   -0.4767    0.0000 N   0  0  0  0  0  0  0  0  0  0  0  0
    2.8785   -0.8851    0.0000 C   0  0  0  0  0  0  0  0  0  0  0  0
    3.5917   -0.4665    0.0000 O   0  0  0  0  0  0  0  0  0  0  0  0
    2.8844   -1.7121    0.0000 C   0  0  0  0  0  0  0  0  0  0  0  0
    2.4760   -2.4312    0.0000 C   0  0  0  0  0  0  0  0  0  0  0  0
    3.3030   -2.4253    0.0000 C   0  0  0  0  0  0  0  0  0  0  0  0
    4.0221   -2.8337    0.0000 C   0  0  0  0  0  0  0  0  0  0  0  0
    1.4317    0.7644    0.0000 C   0  0  0  0  0  0  0  0  0  0  0  0
    0.7158    0.3502    0.0000 C   0  0  0  0  0  0  0  0  0  0  0  0
    0.0000    0.7644    0.0000 C   0  0  0  0  0  0  0  0  0  0  0  0
    0.0000    1.5926    0.0000 C   0  0  0  0  0  0  0  0  0  0  0  0
    0.7158    2.0067    0.0000 C   0  0  0  0  0  0  0  0  0  0  0  0
    1.4317    1.5926    0.0000 C   0  0  0  0  0  0  0  0  0  0  0  0
    2.1534    2.0067    0.0000 C   0  0  0  0  0  0  0  0  0  0  0  0
    2.1594    2.8337    0.0000 O   0  0  0  0  0  0  0  0  0  0  0  0
  1  2  1  0  0  0
  2  3  1  0  0  0
  3 19  1  0  0  0
  3  4  1  0  0  0
  4  5  2  0  0  0
  5  6  1  0  0  0
  6  7  1  0  0  0
  7  8  2  0  0  0
  7  9  1  0  0  0
  9 11  1  0  0  0
  9 10  1  0  0  0
 10 11  1  0  0  0
 11 12  1  0  0  0
  5 13  1  0  0  0
 13 18  1  0  0  0
 13 14  2  0  0  0
 14 15  1  0  0  0
 15 16  2  0  0  0
 16 17  1  0  0  0
 17 18  2  0  0  0
 18 19  1  0  0  0
 19 20  2  0  0  0
M  END
>  <Entry>
621

>  <title>
1-8934

>  <rigid docking scores>
-17.5428

>  <InChIKey>
HVGNCBPVWXUDTI-UHFFFAOYSA-N

$$$$
atoms 22 bonds 25
dotmatics
mol io
 22 25  0  0  0  0  0  0  0  0999 V2000
    2.8785   -0.9402    0.0000 O   0  0  0  0  0  0  0  0  0  0  0  0
    2.1594   -0.5318    0.0000 C   0  0  0  0  0  0  0  0  0  0  0  0
    1.4461   -0.9504    0.0000 N   0  0  0  0  0  0  0  0  0  0  0  0
    1.4520   -1.7774    0.0000 C   0  0  0  0  0  0  0  0  0  0  0  0
    2.0410   -2.3579    0.0000 C   0  0  0  0  0  0  0  0  0  0  0  0
    1.4604   -2.9469    0.0000 C   0  0  0  0  0  0  0  0  0  0  0  0
    0.8714   -2.3663    0.0000 C   0  0  0  0  0  0  0  0  0  0  0  0
    2.1534    0.2952    0.0000 C   0  0  0  0  0  0  0  0  0  0  0  0
    2.8693    0.7093    0.0000 C   0  0  0  0  0  0  0  0  0  0  0  0
    2.8693    1.5376    0.0000 C   0  0  0  0  0  0  0  0  0  0  0  0
    3.5851    1.9517    0.0000 C   0  0  0  0  0  0  0  0  0  0  0  0
    3.6709    2.7742    0.0000 C   0  0  0  0  0  0  0  0  0  0  0  0
    4.4796    2.9469    0.0000 O   0  0  0  0  0  0  0  0  0  0  0  0
    4.8938    2.2310    0.0000 C   0  0  0  0  0  0  0  0  0  0  0  0
    4.3409    1.6160    0.0000 N   0  0  0  0  0  0  0  0  0  0  0  0
    2.1534    1.9517    0.0000 N   0  0  0  0  0  0  0  0  0  0  0  0
    1.4317    1.5376    0.0000 C   0  0  0  0  0  0  0  0  0  0  0  0
    0.7158    1.9517    0.0000 N   0  0  0  0  0  0  0  0  0  0  0  0
    0.0000    1.5376    0.0000 C   0  0  0  0  0  0  0  0  0  0  0  0
    0.0000    0.7093    0.0000 C   0  0  0  0  0  0  0  0  0  0  0  0
    0.7158    0.2952    0.0000 C   0  0  0  0  0  0  0  0  0  0  0  0
    1.4317    0.7093    0.0000 C   0  0  0  0  0  0  0  0  0  0  0  0
  1  2  2  0  0  0
  2  3  1  0  0  0
  3  4  1  0  0  0
  4  7  1  0  0  0
  4  5  1  0  0  0
  5  6  1  0  0  0
  6  7  1  0  0  0
  2  8  1  0  0  0
  8 22  1  0  0  0
  8  9  2  0  0  0
  9 10  1  0  0  0
 10 11  1  0  0  0
 11 15  1  0  0  0
 11 12  2  0  0  0
 12 13  1  0  0  0
 13 14  1  0  0  0
 14 15  2  0  0  0
 10 16  2  0  0  0
 16 17  1  0  0  0
 17 22  1  0  0  0
 17 18  2  0  0  0
 18 19  1  0  0  0
 19 20  2  0  0  0
 20 21  1  0  0  0
 21 22  2  0  0  0
M  END
>  <Entry>
622

>  <title>
9-7960

>  <rigid docking scores>
-16.7657

>  <InChIKey>
IBWLHTWEXNXBJL-UHFFFAOYSA-N

$$$$
atoms 21 bonds 24
dotmatics
mol io
 21 24  0  0  0  0  0  0  0  0999 V2000
    0.0784    3.0956    0.0000 C   0  0  0  0  0  0  0  0  0  0  0  0
    0.4141    2.3398    0.0000 N   0  0  0  0  0  0  0  0  0  0  0  0
    1.2229    2.1672    0.0000 C   0  0  0  0  0  0  0  0  0  0  0  0
    1.3086    1.3446    0.0000 C   0  0  0  0  0  0  0  0  0  0  0  0
    2.0245    0.9305    0.0000 C   0  0  0  0  0  0  0  0  0  0  0  0
    2.0245    0.1022    0.0000 C   0  0  0  0  0  0  0  0  0  0  0  0
    2.7403   -0.3119    0.0000 C   0  0  0  0  0  0  0  0  0  0  0  0
    2.7403   -1.1389    0.0000 C   0  0  0  0  0  0  0  0  0  0  0  0
    3.4565   -1.5524    0.0000 O   0  0  0  0  0  0  0  0  0  0  0  0
    2.0241   -1.5524    0.0000 N   0  0  0  0  0  0  0  0  0  0  0  0
    2.0241   -2.3794    0.0000 C   0  0  0  0  0  0  0  0  0  0  0  0
    2.4376   -3.0956    0.0000 C   0  0  0  0  0  0  0  0  0  0  0  0
    1.6106   -3.0956    0.0000 C   0  0  0  0  0  0  0  0  0  0  0  0
    3.4562    0.1022    0.0000 C   0  0  0  0  0  0  0  0  0  0  0  0
    4.2430   -0.1522    0.0000 C   0  0  0  0  0  0  0  0  0  0  0  0
    4.7340    0.5164    0.0000 C   0  0  0  0  0  0  0  0  0  0  0  0
    4.2430    1.1849    0.0000 S   0  0  0  0  0  0  0  0  0  0  0  0
    3.4562    0.9305    0.0000 C   0  0  0  0  0  0  0  0  0  0  0  0
    2.7403    1.3446    0.0000 N   0  0  0  0  0  0  0  0  0  0  0  0
    0.5528    1.0089    0.0000 C   0  0  0  0  0  0  0  0  0  0  0  0
    0.0000    1.6240    0.0000 N   0  0  0  0  0  0  0  0  0  0  0  0
  1  2  1  0  0  0
  2 21  1  0  0  0
  2  3  1  0  0  0
  3  4  2  0  0  0
  4  5  1  0  0  0
  5 19  1  0  0  0
  5  6  2  0  0  0
  6  7  1  0  0  0
  7  8  1  0  0  0
  8  9  2  0  0  0
  8 10  1  0  0  0
 10 11  1  0  0  0
 11 13  1  0  0  0
 11 12  1  0  0  0
 12 13  1  0  0  0
  7 14  2  0  0  0
 14 18  1  0  0  0
 14 15  1  0  0  0
 15 16  2  0  0  0
 16 17  1  0  0  0
 17 18  1  0  0  0
 18 19  2  0  0  0
  4 20  1  0  0  0
 20 21  2  0  0  0
M  END
>  <Entry>
623

>  <title>
9-8192

>  <rigid docking scores>
-16.8497

>  <InChIKey>
QQFIHCMBXTUVQW-UHFFFAOYSA-N

$$$$
atoms 23 bonds 26
dotmatics
mol io
 23 26  0  0  0  0  0  0  0  0999 V2000
    2.8785   -1.0631    0.0000 O   0  0  0  0  0  0  0  0  0  0  0  0
    2.1594   -0.6547    0.0000 C   0  0  0  0  0  0  0  0  0  0  0  0
    1.4461   -1.0733    0.0000 N   0  0  0  0  0  0  0  0  0  0  0  0
    1.4520   -1.9003    0.0000 C   0  0  0  0  0  0  0  0  0  0  0  0
    2.0410   -2.4809    0.0000 C   0  0  0  0  0  0  0  0  0  0  0  0
    1.4604   -3.0699    0.0000 C   0  0  0  0  0  0  0  0  0  0  0  0
    0.8714   -2.4893    0.0000 C   0  0  0  0  0  0  0  0  0  0  0  0
    2.1534    0.1722    0.0000 C   0  0  0  0  0  0  0  0  0  0  0  0
    2.8693    0.5864    0.0000 C   0  0  0  0  0  0  0  0  0  0  0  0
    2.8693    1.4146    0.0000 C   0  0  0  0  0  0  0  0  0  0  0  0
    3.5851    1.8287    0.0000 C   0  0  0  0  0  0  0  0  0  0  0  0
    3.5844    2.6557    0.0000 C   0  0  0  0  0  0  0  0  0  0  0  0
    4.3003    3.0699    0.0000 C   0  0  0  0  0  0  0  0  0  0  0  0
    5.0168    2.6570    0.0000 N   0  0  0  0  0  0  0  0  0  0  0  0
    5.0175    1.8300    0.0000 C   0  0  0  0  0  0  0  0  0  0  0  0
    4.3017    1.4159    0.0000 N   0  0  0  0  0  0  0  0  0  0  0  0
    2.1534    1.8287    0.0000 N   0  0  0  0  0  0  0  0  0  0  0  0
    1.4317    1.4146    0.0000 C   0  0  0  0  0  0  0  0  0  0  0  0
    0.7158    1.8287    0.0000 C   0  0  0  0  0  0  0  0  0  0  0  0
    0.0000    1.4146    0.0000 C   0  0  0  0  0  0  0  0  0  0  0  0
    0.0000    0.5864    0.0000 C   0  0  0  0  0  0  0  0  0  0  0  0
    0.7158    0.1722    0.0000 C   0  0  0  0  0  0  0  0  0  0  0  0
    1.4317    0.5864    0.0000 C   0  0  0  0  0  0  0  0  0  0  0  0
  1  2  2  0  0  0
  2  3  1  0  0  0
  3  4  1  0  0  0
  4  7  1  0  0  0
  4  5  1  0  0  0
  5  6  1  0  0  0
  6  7  1  0  0  0
  2  8  1  0  0  0
  8 23  1  0  0  0
  8  9  2  0  0  0
  9 10  1  0  0  0
 10 11  1  0  0  0
 11 16  1  0  0  0
 11 12  2  0  0  0
 12 13  1  0  0  0
 13 14  2  0  0  0
 14 15  1  0  0  0
 15 16  2  0  0  0
 10 17  2  0  0  0
 17 18  1  0  0  0
 18 23  1  0  0  0
 18 19  2  0  0  0
 19 20  1  0  0  0
 20 21  2  0  0  0
 21 22  1  0  0  0
 22 23  2  0  0  0
M  END
>  <Entry>
624

>  <title>
9-8556

>  <rigid docking scores>
-18.4266

>  <InChIKey>
LSGHPVJWTKUAFV-UHFFFAOYSA-N

$$$$
atoms 24 bonds 27
dotmatics
mol io
 24 27  0  0  0  0  0  0  0  0999 V2000
    0.0000    1.6565    0.0000 O   0  0  0  0  0  0  0  0  0  0  0  0
    0.7166    2.0693    0.0000 C   0  0  0  0  0  0  0  0  0  0  0  0
    0.7173    2.8963    0.0000 C   0  0  0  0  0  0  0  0  0  0  0  0
    1.4338    3.3092    0.0000 C   0  0  0  0  0  0  0  0  0  0  0  0
    2.1497    2.8951    0.0000 C   0  0  0  0  0  0  0  0  0  0  0  0
    2.1490    2.0681    0.0000 C   0  0  0  0  0  0  0  0  0  0  0  0
    1.4324    1.6552    0.0000 C   0  0  0  0  0  0  0  0  0  0  0  0
    1.4317    0.8282    0.0000 C   0  0  0  0  0  0  0  0  0  0  0  0
    2.1475    0.4141    0.0000 N   0  0  0  0  0  0  0  0  0  0  0  0
    2.1475   -0.4142    0.0000 C   0  0  0  0  0  0  0  0  0  0  0  0
    2.8634   -0.8283    0.0000 C   0  0  0  0  0  0  0  0  0  0  0  0
    3.5792   -0.4142    0.0000 C   0  0  0  0  0  0  0  0  0  0  0  0
    3.5792    0.4141    0.0000 C   0  0  0  0  0  0  0  0  0  0  0  0
    4.3010    0.8282    0.0000 N   0  0  0  0  0  0  0  0  0  0  0  0
    5.0168    0.4141    0.0000 C   0  0  0  0  0  0  0  0  0  0  0  0
    5.0168   -0.4142    0.0000 N   0  0  0  0  0  0  0  0  0  0  0  0
    4.3010   -0.8283    0.0000 C   0  0  0  0  0  0  0  0  0  0  0  0
    4.3069   -1.6553    0.0000 C   0  0  0  0  0  0  0  0  0  0  0  0
    5.0260   -2.0636    0.0000 C   0  0  0  0  0  0  0  0  0  0  0  0
    5.0319   -2.8906    0.0000 C   0  0  0  0  0  0  0  0  0  0  0  0
    4.3187   -3.3092    0.0000 N   0  0  0  0  0  0  0  0  0  0  0  0
    3.5996   -2.9008    0.0000 C   0  0  0  0  0  0  0  0  0  0  0  0
    3.5936   -2.0739    0.0000 C   0  0  0  0  0  0  0  0  0  0  0  0
    2.8634    0.8282    0.0000 C   0  0  0  0  0  0  0  0  0  0  0  0
  1  2  1  0  0  0
  2  7  1  0  0  0
  2  3  2  0  0  0
  3  4  1  0  0  0
  4  5  2  0  0  0
  5  6  1  0  0  0
  6  7  2  0  0  0
  7  8  1  0  0  0
  8  9  1  0  0  0
  9 24  1  0  0  0
  9 10  1  0  0  0
 10 11  1  0  0  0
 11 12  1  0  0  0
 12 17  1  0  0  0
 12 13  2  0  0  0
 13 14  1  0  0  0
 14 15  2  0  0  0
 15 16  1  0  0  0
 16 17  2  0  0  0
 17 18  1  0  0  0
 18 23  1  0  0  0
 18 19  2  0  0  0
 19 20  1  0  0  0
 20 21  2  0  0  0
 21 22  1  0  0  0
 22 23  2  0  0  0
 13 24  1  0  0  0
M  END
>  <Entry>
625

>  <title>
9-9468

>  <rigid docking scores>
-15.4418

>  <InChIKey>
FZLGYBXEONFMQT-UHFFFAOYSA-N

$$$$
atoms 17 bonds 19
dotmatics
mol io
 17 19  0  0  0  0  0  0  0  0999 V2000
    0.6691    2.4174    0.0000 C   0  0  0  0  0  0  0  0  0  0  0  0
    1.3381    1.9313    0.0000 C   0  0  0  0  0  0  0  0  0  0  0  0
    1.0826    1.1448    0.0000 C   0  0  0  0  0  0  0  0  0  0  0  0
    1.5687    0.4757    0.0000 C   0  0  0  0  0  0  0  0  0  0  0  0
    2.3957    0.4757    0.0000 N   0  0  0  0  0  0  0  0  0  0  0  0
    2.6512   -0.3108    0.0000 C   0  0  0  0  0  0  0  0  0  0  0  0
    3.4377   -0.5664    0.0000 C   0  0  0  0  0  0  0  0  0  0  0  0
    3.6097   -1.3753    0.0000 N   0  0  0  0  0  0  0  0  0  0  0  0
    4.3962   -1.6309    0.0000 C   0  0  0  0  0  0  0  0  0  0  0  0
    5.0653   -1.1448    0.0000 C   0  0  0  0  0  0  0  0  0  0  0  0
    5.7343   -1.6309    0.0000 C   0  0  0  0  0  0  0  0  0  0  0  0
    5.4788   -2.4174    0.0000 O   0  0  0  0  0  0  0  0  0  0  0  0
    4.6518   -2.4174    0.0000 C   0  0  0  0  0  0  0  0  0  0  0  0
    1.9822   -0.7969    0.0000 C   0  0  0  0  0  0  0  0  0  0  0  0
    1.3131   -0.3108    0.0000 S   0  0  0  0  0  0  0  0  0  0  0  0
    0.2556    1.1448    0.0000 C   0  0  0  0  0  0  0  0  0  0  0  0
    0.0000    1.9313    0.0000 S   0  0  0  0  0  0  0  0  0  0  0  0
  1 17  1  0  0  0
  1  2  2  0  0  0
  2  3  1  0  0  0
  3  4  1  0  0  0
  4 15  1  0  0  0
  4  5  2  0  0  0
  5  6  1  0  0  0
  6  7  1  0  0  0
  7  8  1  0  0  0
  8  9  1  0  0  0
  9 13  1  0  0  0
  9 10  1  0  0  0
 10 11  1  0  0  0
 11 12  1  0  0  0
 12 13  1  0  0  0
  6 14  2  0  0  0
 14 15  1  0  0  0
  3 16  2  0  0  0
 16 17  1  0  0  0
M  END
>  <Entry>
626

>  <title>
1-9416

>  <rigid docking scores>
-15.8074

>  <InChIKey>
NYMBAIBIVDNMEE-UHFFFAOYSA-N

$$$$
atoms 23 bonds 25
dotmatics
mol io
 23 25  0  0  0  0  0  0  0  0999 V2000
    7.8621   -0.0040    0.0000 N   0  0  0  0  0  0  0  0  0  0  0  0
    7.4492    0.7126    0.0000 C   0  0  0  0  0  0  0  0  0  0  0  0
    7.8634    1.4284    0.0000 O   0  0  0  0  0  0  0  0  0  0  0  0
    6.6222    0.7133    0.0000 C   0  0  0  0  0  0  0  0  0  0  0  0
    6.2081   -0.0025    0.0000 C   0  0  0  0  0  0  0  0  0  0  0  0
    5.3811   -0.0018    0.0000 C   0  0  0  0  0  0  0  0  0  0  0  0
    4.9682    0.7148    0.0000 N   0  0  0  0  0  0  0  0  0  0  0  0
    4.1412    0.7155    0.0000 C   0  0  0  0  0  0  0  0  0  0  0  0
    3.7284    1.4320    0.0000 O   0  0  0  0  0  0  0  0  0  0  0  0
    3.7271   -0.0004    0.0000 C   0  0  0  0  0  0  0  0  0  0  0  0
    4.1412   -0.7162    0.0000 C   0  0  0  0  0  0  0  0  0  0  0  0
    3.7271   -1.4320    0.0000 C   0  0  0  0  0  0  0  0  0  0  0  0
    2.8989   -1.4320    0.0000 N   0  0  0  0  0  0  0  0  0  0  0  0
    2.4847   -0.7162    0.0000 C   0  0  0  0  0  0  0  0  0  0  0  0
    1.6565   -0.7162    0.0000 C   0  0  0  0  0  0  0  0  0  0  0  0
    1.2424   -1.4320    0.0000 C   0  0  0  0  0  0  0  0  0  0  0  0
    0.4141   -1.4320    0.0000 C   0  0  0  0  0  0  0  0  0  0  0  0
    0.0000   -0.7162    0.0000 C   0  0  0  0  0  0  0  0  0  0  0  0
    0.4141   -0.0004    0.0000 C   0  0  0  0  0  0  0  0  0  0  0  0
    1.2424   -0.0004    0.0000 N   0  0  0  0  0  0  0  0  0  0  0  0
    2.8989   -0.0004    0.0000 C   0  0  0  0  0  0  0  0  0  0  0  0
    5.3824    1.4306    0.0000 C   0  0  0  0  0  0  0  0  0  0  0  0
    6.2094    1.4299    0.0000 C   0  0  0  0  0  0  0  0  0  0  0  0
  1  2  1  0  0  0
  2  3  2  0  0  0
  2  4  1  0  0  0
  4 23  1  0  0  0
  4  5  1  0  0  0
  5  6  1  0  0  0
  6  7  1  0  0  0
  7  8  1  0  0  0
  8  9  2  0  0  0
  8 10  1  0  0  0
 10 21  1  0  0  0
 10 11  2  0  0  0
 11 12  1  0  0  0
 12 13  2  0  0  0
 13 14  1  0  0  0
 14 15  1  0  0  0
 15 20  1  0  0  0
 15 16  2  0  0  0
 16 17  1  0  0  0
 17 18  2  0  0  0
 18 19  1  0  0  0
 19 20  2  0  0  0
 14 21  2  0  0  0
  7 22  1  0  0  0
 22 23  1  0  0  0
M  END
>  <Entry>
627

>  <title>
1-9469

>  <rigid docking scores>
-17.6506

>  <InChIKey>
BTBCPFOKIMLFRY-UHFFFAOYSA-N

$$$$
